                                  MODFLOW-NWT-SWR1 
      U.S. GEOLOGICAL SURVEY MODULAR FINITE-DIFFERENCE GROUNDWATER-FLOW MODEL
                            VERSION 1.2.0 03/01/2020
                    BASED ON MODFLOW-2005 VERSION 1.12.00 02/03/2017

 LIST FILE: ./output/UZF_cap_ET.lst
                         UNIT    9

 OPENING ./input/UZF_cap_ET.ba6
 FILE TYPE:BAS6   UNIT   75   STATUS:OLD    
 FORMAT:FORMATTED              ACCESS:SEQUENTIAL          

 OPENING ./input/UZF_cap_ET.upw
 FILE TYPE:UPW   UNIT    7   STATUS:OLD    
 FORMAT:FORMATTED              ACCESS:SEQUENTIAL          

 OPENING ./input/UZF_cap_ET.dis
 FILE TYPE:DIS   UNIT    8   STATUS:OLD    
 FORMAT:FORMATTED              ACCESS:SEQUENTIAL          

 OPENING ./input/UZF_cap_ET.nwt
 FILE TYPE:NWT   UNIT   13   STATUS:OLD    
 FORMAT:FORMATTED              ACCESS:SEQUENTIAL          

 OPENING ./input/UZF_cap_ET.oc
 FILE TYPE:OC   UNIT   14   STATUS:OLD    
 FORMAT:FORMATTED              ACCESS:SEQUENTIAL          

 OPENING ./input/UZF_cap_ET.sfr
 FILE TYPE:SFR   UNIT   15   STATUS:OLD    
 FORMAT:FORMATTED              ACCESS:SEQUENTIAL          

 OPENING ./input/UZF_cap_ET.ghb
 FILE TYPE:GHB   UNIT   17   STATUS:OLD    
 FORMAT:FORMATTED              ACCESS:SEQUENTIAL          

 OPENING ./input/UZF_cap_ET.uzf
 FILE TYPE:UZF   UNIT   19   STATUS:OLD    
 FORMAT:FORMATTED              ACCESS:SEQUENTIAL          

 OPENING ./input/UZF_cap_ET.gag
 FILE TYPE:GAGE   UNIT   32   STATUS:OLD    
 FORMAT:FORMATTED              ACCESS:SEQUENTIAL          

 OPENING ./input/seg1.tab
 FILE TYPE:DATA   UNIT   55   STATUS:UNKNOWN
 FORMAT:FORMATTED              ACCESS:SEQUENTIAL          

 OPENING ./input/seg9.tab
 FILE TYPE:DATA   UNIT   56   STATUS:UNKNOWN
 FORMAT:FORMATTED              ACCESS:SEQUENTIAL          

 OPENING ./output/UZF_cap_ET.hed
 FILE TYPE:DATA   UNIT   62   STATUS:UNKNOWN
 FORMAT:FORMATTED              ACCESS:SEQUENTIAL          

 OPENING ./output/UZF_cap_ET.uzfot
 FILE TYPE:DATA(BINARY)   UNIT   61   STATUS:UNKNOWN
 FORMAT:BINARY                 ACCESS:SEQUENTIAL          

 OPENING ./output/UZF_cap_ET.unf
 FILE TYPE:DATA(BINARY)   UNIT  102   STATUS:UNKNOWN
 FORMAT:BINARY                 ACCESS:SEQUENTIAL          

 OPENING ./output/UZF_cap_ET.uzf1
 FILE TYPE:DATA   UNIT   65   STATUS:UNKNOWN
 FORMAT:FORMATTED              ACCESS:SEQUENTIAL          

 OPENING ./output/UZF_cap_ET.uzf2
 FILE TYPE:DATA   UNIT   66   STATUS:UNKNOWN
 FORMAT:FORMATTED              ACCESS:SEQUENTIAL          

 OPENING ./output/UZF_cap_ET.uzf3
 FILE TYPE:DATA   UNIT   67   STATUS:UNKNOWN
 FORMAT:FORMATTED              ACCESS:SEQUENTIAL          

 OPENING ./output/UZF_cap_ET.uzf4
 FILE TYPE:DATA   UNIT   68   STATUS:UNKNOWN
 FORMAT:FORMATTED              ACCESS:SEQUENTIAL          

 OPENING ./output/UZF_cap_ET.flw
 FILE TYPE:DATA   UNIT   81   STATUS:UNKNOWN
 FORMAT:FORMATTED              ACCESS:SEQUENTIAL          

 OPENING ./output/UZF_cap_ET.sg1
 FILE TYPE:DATA   UNIT   83   STATUS:UNKNOWN
 FORMAT:FORMATTED              ACCESS:SEQUENTIAL          

 OPENING ./output/UZF_cap_ET.sg2
 FILE TYPE:DATA   UNIT   84   STATUS:UNKNOWN
 FORMAT:FORMATTED              ACCESS:SEQUENTIAL          

 OPENING ./output/UZF_cap_ET.sg3
 FILE TYPE:DATA   UNIT   85   STATUS:UNKNOWN
 FORMAT:FORMATTED              ACCESS:SEQUENTIAL          

 OPENING ./output/UZF_cap_ET.sg4
 FILE TYPE:DATA   UNIT   86   STATUS:UNKNOWN
 FORMAT:FORMATTED              ACCESS:SEQUENTIAL          

 OPENING ./output/UZF_cap_ET.sg5
 FILE TYPE:DATA   UNIT   87   STATUS:UNKNOWN
 FORMAT:FORMATTED              ACCESS:SEQUENTIAL          

 OPENING ./output/UZF_cap_ET.sg6
 FILE TYPE:DATA   UNIT   88   STATUS:UNKNOWN
 FORMAT:FORMATTED              ACCESS:SEQUENTIAL          

 OPENING ./output/UZF_cap_ET.sg7
 FILE TYPE:DATA   UNIT   89   STATUS:UNKNOWN
 FORMAT:FORMATTED              ACCESS:SEQUENTIAL          

 OPENING ./output/UZF_cap_ET.sg8
 FILE TYPE:DATA   UNIT   90   STATUS:UNKNOWN
 FORMAT:FORMATTED              ACCESS:SEQUENTIAL          

 BAS -- BASIC PACKAGE, VERSION 1.1.4, 4/01/2018 INPUT READ FROM UNIT   75
 
 MODFLOW was compiled using mixed precision
 Precision of REAL variables:           6
 Precision of DOUBLE PRECISION variables:          15

 DISCRETIZATION INPUT DATA READ FROM UNIT    8
 #Test problem 2-- Discretization input
 #Example problem using the UZF1 Package
    1 LAYERS        15 ROWS        10 COLUMNS
   49 STRESS PERIOD(S) IN SIMULATION
 MODEL TIME UNIT IS SECONDS
 MODEL LENGTH UNIT IS FEET
  Confining bed flag for each layer:
   0

                     DELR =   5000.00    

                     DELC =   5000.00    



           TOP ELEVATION OF LAYER 1
 READING ON UNIT    8 WITH FORMAT: (10F7.0)            

            1           2           3           4           5           6           7           8           9          10
 ........................................................................................................................
   1    1105.       1105.       0.000       0.000       0.000       0.000       0.000       0.000       0.000       0.000    
   2    1105.       1095.       1105.       0.000       0.000       1100.       1100.       1110.       0.000       0.000    
   3    0.000       1100.       1085.       1080.       1078.       1076.       1073.       1090.       0.000       0.000    
   4    1110.       1100.       1090.       1085.       1076.       1080.       1080.       1070.       1100.       0.000    
   5    1110.       1100.       1085.       1080.       1078.       1074.       1077.       1066.       1075.       1080.    
   6    1105.       1095.       1080.       1077.       1073.       1069.       1070.       1063.       1085.       1095.    
   7    1105.       1090.       1075.       1072.       1070.       1065.       1065.       1069.       1090.       0.000    
   8    0.000       1080.       1070.       1068.       1063.       1060.       1063.       1067.       1090.       0.000    
   9    0.000       1075.       1065.       1062.       1058.       1052.       1055.       1065.       1090.       0.000    
  10    0.000       1070.       1060.       1055.       1046.       1046.       1044.       1060.       1088.       1100.    
  11    0.000       1055.       1050.       1045.       1041.       1042.       1040.       1050.       1075.       0.000    
  12    1027.       1028.       1028.       1032.       1032.       1033.       1032.       1040.       1060.       0.000    
  13    997.0       1004.       1008.       1014.       1020.       1027.       1032.       1038.       1050.       0.000    
  14    0.000       1030.       1040.       1045.       1050.       1050.       1050.       1050.       1044.       0.000    
  15    0.000       0.000       1080.       1080.       1080.       1080.       0.000       0.000       0.000       0.000    



             MODEL LAYER BOTTOM EL. FOR LAYER   1
 READING ON UNIT    8 WITH FORMAT: (10F7.0)            

            1           2           3           4           5           6           7           8           9          10
 ........................................................................................................................
   1    1000.       1000.       0.000       0.000       0.000       0.000       0.000       0.000       0.000       0.000    
   2    1000.       900.0       900.0       0.000       0.000       950.0       950.0       950.0       0.000       0.000    
   3    0.000       850.0       670.0       680.0       680.0       770.0       770.0       890.0       0.000       0.000    
   4    925.0       850.0       650.0       650.0       650.0       680.0       740.0       850.0       950.0       0.000    
   5    925.0       800.0       650.0       600.0       600.0       600.0       650.0       720.0       850.0       950.0    
   6    925.0       800.0       650.0       600.0       550.0       600.0       650.0       720.0       850.0       970.0    
   7    925.0       800.0       650.0       600.0       550.0       600.0       650.0       720.0       950.0       0.000    
   8    0.000       850.0       700.0       650.0       570.0       600.0       700.0       850.0       950.0       0.000    
   9    0.000       850.0       700.0       650.0       540.0       580.0       700.0       850.0       950.0       0.000    
  10    0.000       850.0       700.0       630.0       530.0       580.0       650.0       800.0       900.0       950.0    
  11    0.000       850.0       700.0       620.0       580.0       620.0       700.0       800.0       900.0       0.000    
  12    900.0       830.0       710.0       640.0       600.0       650.0       700.0       800.0       900.0       0.000    
  13    900.0       810.0       750.0       700.0       650.0       700.0       750.0       800.0       900.0       0.000    
  14    0.000       950.0       850.0       850.0       850.0       850.0       850.0       850.0       850.0       0.000    
  15    0.000       0.000       950.0       950.0       950.0       950.0       0.000       0.000       0.000       0.000    


 STRESS PERIOD     LENGTH       TIME STEPS     MULTIPLIER FOR DELT    SS FLAG
 ----------------------------------------------------------------------------
        1         86400.00          1                    1.000         SS
        2         2630000.         30                    1.000         TR
        3         2630000.         30                    1.000         TR
        4         2630000.         30                    1.000         TR
        5         2630000.         30                    1.000         TR
        6         2630000.         30                    1.000         TR
        7         2630000.         30                    1.000         TR
        8         2630000.         30                    1.000         TR
        9         2630000.         30                    1.000         TR
       10         2630000.         30                    1.000         TR
       11         2630000.         30                    1.000         TR
       12         2630000.         30                    1.000         TR
       13         2630000.         30                    1.000         TR
       14         2630000.         30                    1.000         TR
       15         2630000.         30                    1.000         TR
       16         2630000.         30                    1.000         TR
       17         2630000.         30                    1.000         TR
       18         2630000.         30                    1.000         TR
       19         2630000.         30                    1.000         TR
       20         2630000.         30                    1.000         TR
       21         2630000.         30                    1.000         TR
       22         2630000.         30                    1.000         TR
       23         2630000.         30                    1.000         TR
       24         2630000.         30                    1.000         TR
       25         2630000.         30                    1.000         TR
       26         2630000.         30                    1.000         TR
       27         2630000.         30                    1.000         TR
       28         2630000.         30                    1.000         TR
       29         2630000.         30                    1.000         TR
       30         2630000.         30                    1.000         TR
       31         2630000.         30                    1.000         TR
       32         2630000.         30                    1.000         TR
       33         2630000.         30                    1.000         TR
       34         2630000.         30                    1.000         TR
       35         2630000.         30                    1.000         TR
       36         2630000.         30                    1.000         TR
       37         2630000.         30                    1.000         TR
       38         2630000.         30                    1.000         TR
       39         2630000.         30                    1.000         TR
       40         2630000.         30                    1.000         TR
       41         2630000.         30                    1.000         TR
       42         2630000.         30                    1.000         TR
       43         2630000.         30                    1.000         TR
       44         2630000.         30                    1.000         TR
       45         2630000.         30                    1.000         TR
       46         2630000.         30                    1.000         TR
       47         2630000.         30                    1.000         TR
       48         2630000.         30                    1.000         TR
       49         2630000.         30                    1.000         TR

 COMBINED STEADY-STATE AND TRANSIENT SIMULATION



 
 #Test Simulation 2-- Example problem using the UZF1 Package                     
 #Modified from example Problem 1 of SFR1 documentation report                   
 THE FREE FORMAT OPTION HAS BEEN SELECTED



                     BOUNDARY ARRAY FOR LAYER   1
 READING ON UNIT   75 WITH FORMAT: (20I4)              

                1           2           3           4           5           6           7           8           9          10
 ............................................................................................................................
   1            1           1           0           0           0           0           0           0           0           0
   2            1           1           1           0           0           1           1           1           0           0
   3            0           1           1           1           1           1           1           1           0           0
   4            1           1           1           1           1           1           1           1           1           0
   5            1           1           1           1           1           1           1           1           1           1
   6            1           1           1           1           1           1           1           1           1           1
   7            1           1           1           1           1           1           1           1           1           0
   8            0           1           1           1           1           1           1           1           1           0
   9            0           1           1           1           1           1           1           1           1           0
  10            0           1           1           1           1           1           1           1           1           1
  11            0           1           1           1           1           1           1           1           1           0
  12            1           1           1           1           1           1           1           1           1           0
  13            1           1           1           1           1           1           1           1           1           0
  14            0           1           1           1           1           1           1           1           1           0
  15            0           0           1           1           1           1           0           0           0           0

 AQUIFER HEAD WILL BE SET TO   6999.0     AT ALL NO-FLOW NODES (IBOUND=0).



                       INITIAL HEAD FOR LAYER   1
 READING ON UNIT   75 WITH FORMAT: (10F8.0)            

            1           2           3           4           5           6           7           8           9          10
 ........................................................................................................................
   1    1093.       1089.       6999.       6999.       6999.       6999.       6999.       6999.       6999.       6999.    
   2    1090.       1087.       1081.       6999.       6999.       1072.       1071.       1071.       6999.       6999.    
   3    6999.       1079.       1078.       1074.       1072.       1071.       1069.       1068.       6999.       6999.    
   4    1069.       1071.       1070.       1067.       1065.       1064.       1064.       1066.       1066.       6999.    
   5    1065.       1064.       1063.       1062.       1061.       1061.       1060.       1062.       1066.       1068.    
   6    1060.       1058.       1057.       1056.       1056.       1057.       1057.       1059.       1062.       1066.    
   7    1056.       1053.       1052.       1051.       1051.       1052.       1053.       1055.       1056.       6999.    
   8    6999.       1046.       1046.       1046.       1046.       1046.       1048.       1050.       1050.       6999.    
   9    6999.       1039.       1039.       1039.       1040.       1041.       1042.       1043.       1044.       6999.    
  10    6999.       1031.       1032.       1033.       1034.       1035.       1037.       1038.       1039.       1042.    
  11    6999.       1021.       1023.       1027.       1029.       1030.       1032.       1034.       1036.       6999.    
  12    1001.       1009.       1015.       1020.       1023.       1026.       1029.       1030.       1034.       6999.    
  13    994.5      1000.0       1007.       1013.       1019.       1024.       1029.       1034.       1036.       6999.    
  14    6999.       1004.       1009.       1014.       1019.       1024.       1029.       1035.       1039.       6999.    
  15    6999.       6999.       1012.       1015.       1019.       1022.       6999.       6999.       6999.       6999.    

 OUTPUT CONTROL IS SPECIFIED ONLY AT TIME STEPS FOR WHICH OUTPUT IS DESIRED
 HEADS WILL BE SAVED WITH FORMAT: (10F10.3)           
 SAVED HEADS WILL BE LABELED
 COMPACT CELL-BY-CELL BUDGET FILES WILL BE WRITTEN
 HEAD PRINT FORMAT CODE IS   4    DRAWDOWN PRINT FORMAT CODE IS   0
 HEADS WILL BE SAVED ON UNIT   62    DRAWDOWNS WILL BE SAVED ON UNIT    0
 # NWT Input File
 # Test Problem 3 for MODFLOW-NWT
 #HEADTOL  FLUXTOL MAXITEROUT THICKFACT LINMETH IPRNWT IBOTAV OPTIONS DBDREDUCE DBDINCREASE DBDGAMMA MOMFACT BACKFLAG MAXBACKITER BACKTOL BACKREDUCE

 NWT1 -- Newton Solver, VERSION 1.1.4, 4/01/2018
         INPUT READ FROM UNIT 13

 SPECIFIED OPTION:
 SOLVER INPUT VALUES ARE SPECIFIED BY USER
 ***XMD linear solver will be used***
 
   CONVERGENCE CRITERION OF   0.100000E-03 FOR HEAD SOLUTION
   AND A TOLERANCE OF   0.100000E+01 FOR FLOW SOLUTION AND 
   A MAXIMUM OF   500 OUTER ITERATIONS. 


   D-B-D REDUCTION FACTOR OF    0.970000E+00 AND 
   A D-B-D INCREASE FACTOR OF    0.100000E-04 AND 
   A D-B-D RELAXATION OF    0.000000E+00 AND 
   A MOMENTUM FACTOR OF    0.100000E+00 .


 ***BACKTRACKING IS INACTIVE***
 XMD -- LINEAR SOLUTION BY XMD PACKAGE VERSION 1.30
     BY MOTOMU IBARAKI, OHIO STATE UNIVERSITY, COLOMBUS, OH
                 INPUT READ FROM UNIT 13
 ACCELERATION METHOD                    (IACL) =         1
 NODE ORDERING FLAG                   (NORDER) =         0
 LEVEL OF FILL                         (LEVEL) =         7
 MAXIMUM NUMBER OF ORTHOGONALIZATIONS  (NORTH) =         7
 INDEX FOR USING REDUCED SYSTEM      (IREDSYS) =         1
 RESID. REDUCTION CONVERGE CRITERION  (RRCTOL) =  0.000000E+00
 INDEX FOR USING DROP TOLERANCE     (IDROPTOL) =         1
 DROP TOLERANCE VALUE                  (EPSRN) =  0.500000E-02
 CONVERGENCE CRITERIA OF           (HCLOSEXMD) =  0.100000E-03
 MAX. NUMBER OF LINEAR ITERATIONS  (MXITERXMD) =        50


 UPW1 -- UPSTREAM WEIGHTING FLOW PACKAGE, VERSION 1.1.4, 4/01/2018
         INPUT READ FROM UNIT  7

 #Layer-Property Flow Package input for test simulation 2
 CELL-BY-CELL FLOWS WILL BE SAVED ON UNIT  102
 No named parameters

   LAYER FLAGS:
 LAYER       LAYTYP          LAYAVG    CHANI           LAYVKA           LAYWET
 ---------------------------------------------------------------------------
    1             1             0     1.000E+00             0             0

   INTERPRETATION OF LAYER FLAGS:
                        INTERBLOCK     HORIZONTAL    DATA IN
         LAYER TYPE   TRANSMISSIVITY   ANISOTROPY   ARRAY VKA   WETTABILITY
 LAYER   (LAYTYP)        (LAYAVG)      (CHANI)     (LAYVKA)       (LAYWET)
 ---------------------------------------------------------------------------
    1   CONVERTIBLE      HARMONIC     1.000E+00    VERTICAL K  NON-WETTABLE



              HYD. COND. ALONG ROWS FOR LAYER   1
 READING ON UNIT    7 WITH FORMAT: (10F5.0)            

            1           2           3           4           5           6           7           8           9          10
 ........................................................................................................................
   1   2.0000E-03  2.0000E-03   0.000       0.000       0.000       0.000       0.000       0.000       0.000       0.000    
   2   4.0000E-04  2.0000E-03  2.0000E-03   0.000       0.000      4.0000E-04  4.0000E-04  4.0000E-04   0.000       0.000    
   3    0.000      4.0000E-04  2.0000E-03  2.0000E-03  4.0000E-04  4.0000E-04  4.0000E-04  4.0000E-04   0.000       0.000    
   4   4.0000E-04  4.0000E-04  4.0000E-04  2.0000E-03  2.0000E-03  2.0000E-03  4.0000E-04  4.0000E-04  4.0000E-04   0.000    
   5   4.0000E-04  4.0000E-04  4.0000E-04  2.0000E-03  2.0000E-03  2.0000E-03  2.0000E-03  2.0000E-03  2.0000E-03  2.0000E-03
   6   4.0000E-04  4.0000E-04  4.0000E-04  2.0000E-03  2.0000E-03  2.0000E-03  2.0000E-03  2.0000E-03  4.0000E-04  4.0000E-04
   7   4.0000E-04  4.0000E-04  4.0000E-04  2.0000E-03  2.0000E-03  2.0000E-03  2.0000E-03  2.0000E-03  4.0000E-04   0.000    
   8    0.000      4.0000E-04  4.0000E-04  2.0000E-03  2.0000E-03  2.0000E-03  2.0000E-03  4.0000E-04  4.0000E-04   0.000    
   9    0.000      4.0000E-04  4.0000E-04  2.0000E-03  2.0000E-03  2.0000E-03  2.0000E-03  4.0000E-04  4.0000E-04   0.000    
  10    0.000      4.0000E-04  4.0000E-04  2.0000E-03  2.0000E-03  2.0000E-03  2.0000E-03  4.0000E-04  4.0000E-04  4.0000E-04
  11    0.000      4.0000E-04  4.0000E-04  2.0000E-03  2.0000E-03  2.0000E-03  2.0000E-03  4.0000E-04  4.0000E-04   0.000    
  12   4.0000E-04  4.0000E-04  2.0000E-03  2.0000E-03  2.0000E-03  2.0000E-03  2.0000E-03  4.0000E-04  4.0000E-04   0.000    
  13   2.0000E-03  2.0000E-03  2.0000E-03  2.0000E-03  2.0000E-03  2.0000E-03  2.0000E-03  2.0000E-03  2.0000E-03   0.000    
  14    0.000      4.0000E-04  4.0000E-04  4.0000E-04  4.0000E-04  4.0000E-04  4.0000E-04  4.0000E-04  2.0000E-03   0.000    
  15    0.000       0.000      4.0000E-04  4.0000E-04  4.0000E-04  4.0000E-04   0.000       0.000       0.000       0.000    

      VERTICAL HYD. COND. =  1.000000E-06 FOR LAYER   1

         SPECIFIC STORAGE =  1.000000E-06 FOR LAYER   1



                     SPECIFIC YIELD FOR LAYER   1
 READING ON UNIT    7 WITH FORMAT: (10F5.0)            

            1           2           3           4           5           6           7           8           9          10
 ........................................................................................................................
   1   0.2000      0.2000       0.000       0.000       0.000       0.000       0.000       0.000       0.000       0.000    
   2   0.1000      0.2000      0.2000       0.000       0.000      0.1000      0.1000      0.1000       0.000       0.000    
   3    0.000      0.1000      0.2000      0.2000      0.1000      0.1000      0.1000      0.1000       0.000       0.000    
   4   0.1000      0.1000      0.1000      0.2000      0.2000      0.2000      0.1000      0.1000      0.1000       0.000    
   5   0.1000      0.1000      0.1000      0.2000      0.2000      0.2000      0.2000      0.2000      0.2000      0.2000    
   6   0.1000      0.1000      0.1000      0.2000      0.2000      0.2000      0.2000      0.2000      0.1000      0.1000    
   7   0.1000      0.1000      0.1000      0.2000      0.2000      0.2000      0.2000      0.2000      0.1000       0.000    
   8    0.000      0.1000      0.1000      0.2000      0.2000      0.2000      0.2000      0.1000      0.1000       0.000    
   9    0.000      0.1000      0.1000      0.2000      0.2000      0.2000      0.2000      0.1000      0.1000       0.000    
  10    0.000      0.1000      0.1000      0.2000      0.2000      0.2000      0.2000      0.1000      0.1000      0.1000    
  11    0.000      0.1000      0.1000      0.2000      0.2000      0.2000      0.2000      0.1000      0.1000       0.000    
  12   0.1000      0.1000      0.2000      0.2000      0.2000      0.2000      0.2000      0.1000      0.1000       0.000    
  13   0.2000      0.2000      0.2000      0.2000      0.2000      0.2000      0.2000      0.2000      0.2000       0.000    
  14    0.000      0.1000      0.1000      0.1000      0.1000      0.1000      0.1000      0.1000      0.2000       0.000    
  15    0.000       0.000      0.1000      0.1000      0.1000      0.1000       0.000       0.000       0.000       0.000    

 GHB -- GENERAL-HEAD BOUNDARY PACKAGE, VERSION 7, 5/2/2005
         INPUT READ FROM UNIT   17
 No named parameters
 MAXIMUM OF      2 ACTIVE GHB CELLS AT ONE TIME
 CELL-BY-CELL FLOWS WILL BE PRINTED WHEN ICBCFL NOT 0


     0 GHB parameters

 SFR7 -- STREAMFLOW ROUTING PACKAGE, VERSION 1.0.5, 2012-04-05
         INPUT READ FROM UNIT  15
 #SFR2 Package input for Testing supplimental pumping and irrigation
 No named parameters

 PROCESSING SFR2 OPTIONS
 
          2 Specified inflow files will be read with a maximum of       1446 row entries per file
 
Stream loss will be calculated as a factor of the streambed hydraulic conductivity. Multiplication factor is equal to     0.1000000015E+00

 END PROCESSING SFR2 OPTIONS
 


 NUMBER OF STREAM REACHES IS   38

 NUMBER OF STREAM SEGMENTS IS    9

 NUMBER OF STREAM PARAMETERS IS    0

 NUMBER OF STREAM SEGMENTS DEFINED USING PARAMETERS IS              0

 MAXIMUM ERROR FOR STREAM LEAKAGE RATES IS  1.00E-06

 CONSTANT FOR MANNINGS EQUATION IS  1.4860E+00



 STREAM OUTPUT WILL BE WRITTEN TO FILE ON UNIT   81


   STREAM NETWORK DESCRIPTION: 

   LAYER    ROW    COL   SEGMENT   REACH     LENGTH
                          NUMBER   NUMBER    IN CELL        
   --------------------------------------------------
      1      1      1       1        1    4.5000E+03
      1      2      2       1        2    7.0000E+03
      1      3      3       1        3    6.0000E+03
      1      3      4       1        4    5.5500E+03
      1      4      5       2        1    6.5000E+03
      1      5      6       2        2    5.0000E+03
      1      6      6       2        3    5.0000E+03
      1      7      6       2        4    5.0000E+03
      1      8      6       2        5    5.0000E+03
      1      3      5       3        1    5.0000E+03
      1      3      6       3        2    5.0000E+03
      1      3      7       3        3    4.5000E+03
      1      4      8       3        4    6.0000E+03
      1      5      8       3        5    5.0000E+03
      1      6      8       3        6    2.0000E+03
      1      5     10       4        1    2.5000E+03
      1      5      9       4        2    5.0000E+03
      1      6      8       4        3    3.5000E+03
      1      6      8       5        1    4.0000E+03
      1      7      7       5        2    5.0000E+03
      1      8      7       5        3    3.5000E+03
      1      8      6       5        4    2.5000E+03
      1      9      6       6        1    5.0000E+03
      1     10      7       6        2    5.0000E+03
      1     11      7       6        3    5.0000E+03
      1     12      7       6        4    5.0000E+03
      1     13      7       6        5    2.0000E+03
      1     14      9       7        1    5.0000E+03
      1     13      8       7        2    5.5000E+03
      1     13      7       7        3    5.0000E+03
      1     13      6       8        1    5.0000E+03
      1     13      5       8        2    5.0000E+03
      1     13      4       8        3    5.0000E+03
      1     13      3       8        4    5.0000E+03
      1     13      2       8        5    5.0000E+03
      1     13      1       8        6    3.0000E+03
      1      8      6       9        1    3.0000E+03
      1      8      5       9        2    3.0000E+03




 UZF1 -- UNSATURATED FLOW PACKAGE, VERSION 1.5, 09/10/2019
         INPUT READ FROM UNIT 19
 #UZF Package input for test simulation 2
 No named parameters

 PROCESSING UZF OPTIONS
 
 
 INITIAL WATER CONTENT (THTI) WILL BE 
READ FOR THE FIRST SS OR TR STRESS PERIOD
 
 
 RESIDUAL WATER CONTENT (THTR) WILL BE 
READ AND USED FOR THE FIRST TRANSIENT STRESS 
PERIOD
 
 
AIR ENTRY PRESSURE AND ROOT PRESSURE WILL BE 
SPECIFIED BY USER AND UZ ET WILL BE SIMULATED 
AS PRESSURE-HEAD DEPENDENT
 
 
INFILTRATION WILL BE REJECTED USING 
LAND SURFACE K
 
 
HYDRAULIC CONDUCTIVITY OF LAND SURFACE 
WILL BE READ
 

 END PROCESSING UZF OPTIONS



            AREAL EXTENT OF UZ FLOW
 READING ON UNIT   19 WITH FORMAT: (FREE)              

                1           2           3           4           5           6           7           8           9          10
 ............................................................................................................................
   1            1           1           0           0           0           0           0           0           0           0
   2            1           1           1           0           0           1           1           1           0           0
   3            0           1           1           1           1           1           1           1           0           0
   4            1           1           1           1           1           1           1           1           1           0
   5            1           1           1           1           1           1           1           1           1           1
   6            1           1           1           1           1           1           1           1           1           1
   7            1           1           1           1           1           1           1           1           1           0
   8            0           1           1           1           1           1           1           1           1           0
   9            0           1           1           1           1           1           1           1           1           0
  10            0           1           1           1           1           1           1           1           1           1
  11            0           1           1           1           1           1           1           1           1           0
  12            1           1           1           1           1           1           1           1           1           0
  13            1           1           1           1           1           1           1           1           1           0
  14            0           1           1           1           1           1           1           1           1           0
  15            0           0           1           1           1           1           0           0           0           0
 OPTION 1 -- RECHARGE IN UZF TO TOP LAYER ONLY 



            ROUTING OVERLAND RUNOFF
 READING ON UNIT   19 WITH FORMAT: (FREE)              

                1           2           3           4           5           6           7           8           9          10
 ............................................................................................................................
   1            1           1           0           0           0           0           0           0           0           0
   2            1           1           1           0           0           3           3           3           0           0
   3            0           1           1           1           3           3           3           3           0           0
   4            8           8           2           2           2           2           2           3           3           0
   5            8           8           8           8           2           2           2           3           4           4
   6            8           8           8           8           8           2           2           4           4           4
   7            8           8           8           8           8           2           5           5           5           0
   8            0           8           8           8           8           2           5           5           5           0
   9            0           8           8           8           8           6           6           6           6           0
  10            0           8           8           8           8           6           6           6           6           6
  11            0           8           8           8           8           8           6           6           7           0
  12            8           8           8           8           8           8           6           7           7           0
  13            8           8           8           8           8           8           7           7           7           0
  14            0           8           8           8           8           8           7           7           7           0
  15            0           0           8           8           8           8           0           0           0           0



               SATURATED VERTICAL K
 READING ON UNIT   19 WITH FORMAT: (10F4.0)            

            1           2           3           4           5           6           7           8           9          10
 ........................................................................................................................
   1   4.6000E-05  4.6000E-05   0.000       0.000       0.000       0.000       0.000       0.000       0.000       0.000    
   2   4.6000E-05  4.6000E-05  4.6000E-05   0.000       0.000      4.6000E-05  4.6000E-05  4.6000E-05   0.000       0.000    
   3    0.000      4.6000E-05  4.6000E-05  4.6000E-05  4.6000E-05  4.6000E-05  4.6000E-05  4.6000E-05   0.000       0.000    
   4   4.6000E-05  4.6000E-05  4.6000E-05  4.6000E-05  4.6000E-05  4.6000E-05  4.6000E-05  4.6000E-05  4.6000E-05   0.000    
   5   4.6000E-05  4.6000E-05  4.6000E-05  4.6000E-05  4.6000E-05  4.6000E-05  4.6000E-05  4.6000E-05  4.6000E-05  4.6000E-05
   6   4.6000E-05  4.6000E-05  4.6000E-05  4.6000E-05  4.6000E-05  4.6000E-05  4.6000E-05  4.6000E-05  4.6000E-05  4.6000E-05
   7   4.6000E-05  4.6000E-05  4.6000E-05  4.6000E-05  4.6000E-05  4.6000E-05  4.6000E-05  4.6000E-05  4.6000E-05   0.000    
   8    0.000      4.6000E-05  4.6000E-05  4.6000E-05  4.6000E-05  4.6000E-05  4.6000E-05  4.6000E-05  4.6000E-05   0.000    
   9    0.000      4.6000E-05  4.6000E-05  4.6000E-05  4.6000E-05  4.6000E-05  4.6000E-05  4.6000E-05  4.6000E-05   0.000    
  10    0.000      4.6000E-05  4.6000E-05  4.6000E-05  4.6000E-05  4.6000E-05  4.6000E-05  4.6000E-05  4.6000E-05  4.6000E-05
  11    0.000      4.6000E-05  4.6000E-05  4.6000E-05  4.6000E-05  4.6000E-05  4.6000E-05  4.6000E-05  4.6000E-05   0.000    
  12   4.6000E-05  4.6000E-05  4.6000E-05  4.6000E-05  4.6000E-05  4.6000E-05  4.6000E-05  4.6000E-05  4.6000E-05   0.000    
  13   4.6000E-05  4.6000E-05  4.6000E-05  4.6000E-05  4.6000E-05  4.6000E-05  4.6000E-05  4.6000E-05  4.6000E-05   0.000    
  14    0.000      4.6000E-05  4.6000E-05  4.6000E-05  4.6000E-05  4.6000E-05  4.6000E-05  4.6000E-05  4.6000E-05   0.000    
  15    0.000       0.000      4.6000E-05  4.6000E-05  4.6000E-05  4.6000E-05   0.000       0.000       0.000       0.000    



            LAND SURFACE VERTICAL K
 READING ON UNIT   19 WITH FORMAT: (10F4.0)            

            1           2           3           4           5           6           7           8           9          10
 ........................................................................................................................
   1   1.0000E-05  1.0000E-05   0.000       0.000       0.000       0.000       0.000       0.000       0.000       0.000    
   2   1.0000E-05  1.0000E-05  1.0000E-05   0.000       0.000      1.0000E-05  1.0000E-05  1.0000E-05   0.000       0.000    
   3    0.000      1.0000E-05  1.0000E-05  1.0000E-05  1.0000E-05  1.0000E-05  1.0000E-05  1.0000E-05   0.000       0.000    
   4   1.0000E-05  1.0000E-05  1.0000E-05  1.0000E-05  1.0000E-05  1.0000E-05  1.0000E-05  1.0000E-05  1.0000E-05   0.000    
   5   1.0000E-05  1.0000E-05  1.0000E-05  1.0000E-05  1.0000E-05  1.0000E-05  1.0000E-05  1.0000E-05  1.0000E-05  1.0000E-05
   6   1.0000E-05  1.0000E-05  1.0000E-05  1.0000E-05  1.0000E-05  1.0000E-05  1.0000E-05  1.0000E-05  1.0000E-05  1.0000E-05
   7   1.0000E-05  1.0000E-05  1.0000E-05  1.0000E-05  1.0000E-05  1.0000E-05  1.0000E-05  1.0000E-05  1.0000E-05   0.000    
   8    0.000      1.0000E-05  1.0000E-05  1.0000E-05  1.0000E-05  1.0000E-05  1.0000E-05  1.0000E-05  1.0000E-05   0.000    
   9    0.000      1.0000E-05  1.0000E-05  1.0000E-05  1.0000E-05  1.0000E-05  1.0000E-05  1.0000E-05  1.0000E-05   0.000    
  10    0.000      1.0000E-05  1.0000E-05  1.0000E-05  1.0000E-05  1.0000E-05  1.0000E-05  1.0000E-05  1.0000E-05  1.0000E-05
  11    0.000      1.0000E-05  1.0000E-05  1.0000E-05  1.0000E-05  1.0000E-05  1.0000E-05  1.0000E-05  1.0000E-05   0.000    
  12   1.0000E-05  1.0000E-05  1.0000E-05  1.0000E-05  1.0000E-05  1.0000E-05  1.0000E-05  1.0000E-05  1.0000E-05   0.000    
  13   1.0000E-05  1.0000E-05  1.0000E-05  1.0000E-05  1.0000E-05  1.0000E-05  1.0000E-05  1.0000E-05  1.0000E-05   0.000    
  14    0.000      1.0000E-05  1.0000E-05  1.0000E-05  1.0000E-05  1.0000E-05  1.0000E-05  1.0000E-05  1.0000E-05   0.000    
  15    0.000       0.000      1.0000E-05  1.0000E-05  1.0000E-05  1.0000E-05   0.000       0.000       0.000       0.000    

     BROOKS-COREY EPSILON =   7.50000    

  SATURATED WATER CONTENT =  0.380000    

   RESIDUAL WATER CONTENT =  0.200000    

    INITIAL WATER CONTENT =  0.200000    

UNSATURATED FLOW RESULTS WILL BE PRINTED TO SEPARATE FILES FOR SELECTED MODEL CELLS, AND TIME STEPS AS DEFINED BY OUTPUT CONTROL PACKAGE 

SELECTED MODEL CELLS ARE: 
 ROW NUMBER  COLUMN NUMBER  FORTRAN UNIT NUMBER  OUTPUT OPTION


       6             4                 65                 1
       6             5                 66                 2
       8             4                 67                 3
       0             0                 68                 4



   8 GAGING STATIONS WERE SPECIFIED.
     (Lakes are identified by a negative value of the Lake Number)
     RECORDS WILL BE WRITTEN TO SEPARATE OUTPUT FILES REPRESENTED BY FOLLOWING UNIT NUMBERS:

 Stream Gages:
  GAGE #   SEGMENT   REACH   UNIT   OUTTYPE
       1       1       4      83       1
       2       2       5      84       1
       3       3       5      85       1
       4       4       3      86       1
       5       5       4      87       4
       6       6       5      88       4
       7       7       3      89       4
       8       8       6      90       4




1
                            STRESS PERIOD NO.    1, LENGTH =   86400.00    
                            -----------------------------------------------

                              NUMBER OF TIME STEPS =     1

                               MULTIPLIER FOR DELT =     1.000

                            INITIAL TIME STEP SIZE =   86400.00    

 BOUND. NO. LAYER   ROW   COL     STAGE      CONDUCTANCE         
 ----------------------------------------------------------------
      1      1     13      1       988.0          0.3800E-01
      2      1     14      9       1045.          0.3800E-01

      2 GHB CELLS



 CLASSIFICATION & COUNT OF STREAM SEGMENTS BASED ON SOURCE OF INFLOW:

                HEADWATER     DIVERSION     RECEIVES TRIBUTARY FLOW
                ---------     ---------     -----------------------
                     3              2               4



                    INPUT DATA FOR EACH STREAM SEGMENT
 ---------------------------------------------------------------------------------------------

 SEGMENT    SEG.     INFLOW   OVERLAND   STREAM    STREAM   ICALC  OUTFLOW  DIVERSION PRIORITY
    NO.    LENGTH     RATE     RUNOFF      ET       PPT.    METH.  TO SEG.  FROM SEG.    NO.

      1  2.305E+04 2.500E+01 0.000E+00 0.000E+00 0.000E+00    4        2        0        0
      2  2.650E+04 0.000E+00 0.000E+00 0.000E+00 0.000E+00    1        6        0        0
      3  2.750E+04 2.000E+00 0.000E+00 0.000E+00 0.000E+00    0        5        1        0
      4  1.100E+04 1.000E+01 0.000E+00 0.000E+00 0.000E+00    1        5        0        0
      5  1.500E+04 0.000E+00 0.000E+00 0.000E+00 0.000E+00    3        6        0        0
      6  2.200E+04 0.000E+00 0.000E+00 0.000E+00 0.000E+00    1        8        0        0
      7  1.550E+04 1.500E+02 0.000E+00 0.000E+00 0.000E+00    2        8        0        0
      8  2.800E+04 0.000E+00 0.000E+00 0.000E+00 0.000E+00    2        0        0        0
      9  6.000E+03 0.000E+00 0.000E+00 0.000E+00 0.000E+00    1        0        2        0


         STREAMBED PROPERTIES AND STREAM DIMENSIONS

 SEGMENT     BED HYD. COND.      BED THICKNESS     ELEV.-TOP OF BED     WIDTH OF STREAM     DEPTH OF STREAM    STREAM ROUGHNESS
    No.     UPPER     LOWER     UPPER     LOWER     UPPER     LOWER     UPPER     LOWER     UPPER     LOWER   CHANNEL      BANK

     1  3.000E-05 3.000E-05 3.000E+00 3.000E+00 1.095E+03 1.075E+03
     2  3.000E-05 3.000E-05 3.000E+00 3.000E+00 1.075E+03 1.050E+03 1.200E+01 1.200E+01                     3.000E-02
     3  3.000E-05 3.000E-05 2.000E+00 2.000E+00 1.075E+03 1.060E+03 1.000E+01 6.000E+00 2.000E+00 1.000E+00
     4  3.000E-05 3.000E-05 3.000E+00 3.000E+00 1.080E+03 1.060E+03 1.000E+01 1.000E+01                     3.000E-02
     5  3.000E-05 3.000E-05 3.000E+00 3.000E+00 1.060E+03 1.045E+03
     6  3.000E-05 3.000E-05 3.000E+00 3.000E+00 1.045E+03 1.025E+03 1.200E+01 1.200E+01                     3.000E-02
     7  6.000E-05 6.000E-05 3.000E+00 3.000E+00 1.040E+03 1.025E+03                                         2.500E-02 4.500E-02
     8  6.000E-05 6.000E-05 3.000E+00 3.000E+00 1.025E+03 9.900E+02                                         2.500E-02 4.500E-02
     9  0.000E+00 0.000E+00 3.000E+00 3.000E+00 1.079E+03 1.078E+03 4.000E+00 4.000E+00                     3.000E-02

  EIGHT POINT CROSS-SECTION DATA FOR SEGMENTS WITH ICALC = 2
    X VALUES X VALUES START FROM LEFT SIDE LOOKING DOWNSTREAM

     SEGMENT NO.        X1        X2        X3        X4        X5        X6        X7        X8
            7      0.000E+00 1.000E+01 8.000E+01 1.000E+02 1.500E+02 1.700E+02 2.400E+02 2.500E+02
            8      0.000E+00 1.000E+01 8.000E+01 1.000E+02 1.500E+02 1.700E+02 2.400E+02 2.500E+02

    Z VALUES ARE RELATIVE TO STREAMBED ELEVATION

     SEGMENT NO.          Z1        Z2        Z3        Z4        Z5        Z6        Z7        Z8
            7      2.000E+01 1.300E+01 1.000E+01 2.000E+00 0.000E+00 1.000E+01 1.300E+01 2.000E+01
            8      2.500E+01 1.700E+01 1.300E+01 4.000E+00 0.000E+00 1.000E+01 1.600E+01 2.000E+01

 STREAMFLOW RELATION WITH DEPTH IS BASED ON EQUATION Q = CDPTH*(DEPTH)**FDPTH
 STREAMFLOW RELATION WITH WIDTH IS BASED ON EQUATION Q = AWDTH*(WIDTH)**BWDTH

 SEGMENT NO.      CDPTH     FDPTH    AWDTH     BWDTH

          5 3.000E-01 3.500E-01 3.800E+00 6.000E-01

 STREAMFLOW RELATION WITH DEPTH AND WIDTH IS BASED ON TABULATED VALUES

  SEGMENT NO.   STREAMFLOW       DEPTH       WIDTH

          1     5.0000E-01   2.5000E-01   3.0000E+00
          1     1.0000E+00   4.0000E-01   3.5000E+00
          1     2.0000E+00   5.5000E-01   4.2000E+00
          1     4.0000E+00   7.0000E-01   5.3000E+00
          1     7.0000E+00   8.0000E-01   7.0000E+00
          1     1.0000E+01   9.0000E-01   8.5000E+00
          1     2.0000E+01   1.1000E+00   1.2000E+01
          1     3.0000E+01   1.2500E+00   1.4000E+01
          1     5.0000E+01   1.4000E+00   1.7000E+01
          1     7.5000E+01   1.7000E+00   2.0000E+01
          1     1.0000E+02   1.8000E+00   2.2000E+01



TABULAR INFLOWS WERE READ FOR SEGMENT      1
FROM FILE UNIT NUMBER     55

          TIMES                    INFLOWS
         0.0000000000E+00     0.3750000000E+01
         0.8640000000E+05     0.1650000000E+02
         0.2760000000E+07     0.3150000000E+02
         0.5270000000E+07     0.5775000000E+02
         0.7950000000E+07     0.2100000000E+02
         0.1050000000E+08     0.7425000000E+02
         0.1320000000E+08     0.6225000000E+02
         0.1580000000E+08     0.5625000000E+02
         0.1850000000E+08     0.4575000000E+02
         0.2120000000E+08     0.3525000000E+02
         0.2380000000E+08     0.2625000000E+02
         0.2640000000E+08     0.1950000000E+02
         0.2900000000E+08     0.1725000000E+02
         0.3170000000E+08     0.1425000000E+02
         0.3440000000E+08     0.1575000000E+02
         0.3680000000E+08     0.7350000000E+02
         0.3950000000E+08     0.5625000000E+02
         0.4210000000E+08     0.4725000000E+02
         0.4480000000E+08     0.4350000000E+02
         0.4730000000E+08     0.4050000000E+02
         0.5000000000E+08     0.2775000000E+02
         0.5270000000E+08     0.1875000000E+02
         0.5530000000E+08     0.1650000000E+02
         0.5800000000E+08     0.1575000000E+02
         0.6060000000E+08     0.1500000000E+02
         0.6320000000E+08     0.1425000000E+02
         0.6330000000E+08     0.1650000000E+02
         0.6600000000E+08     0.3150000000E+02
         0.6850000000E+08     0.5775000000E+02
         0.7120000000E+08     0.2100000000E+02
         0.7370000000E+08     0.7425000000E+02
         0.7640000000E+08     0.6225000000E+02
         0.7900000000E+08     0.5625000000E+02
         0.8170000000E+08     0.4575000000E+02
         0.8440000000E+08     0.3525000000E+02
         0.8700000000E+08     0.2625000000E+02
         0.8960000000E+08     0.1950000000E+02
         0.9220000000E+08     0.1725000000E+02
         0.9490000000E+08     0.1425000000E+02
         0.9760000000E+08     0.1575000000E+02
         0.1000000000E+09     0.7350000000E+02
         0.1030000000E+09     0.5625000000E+02
         0.1050000000E+09     0.4725000000E+02
         0.1080000000E+09     0.4350000000E+02
         0.1110000000E+09     0.4050000000E+02
         0.1130000000E+09     0.2775000000E+02
         0.1160000000E+09     0.1875000000E+02
         0.1190000000E+09     0.1650000000E+02
         0.1210000000E+09     0.1575000000E+02
         0.1240000000E+09     0.1500000000E+02
         0.1260000000E+09     0.1425000000E+02
TABULAR INFLOWS WERE READ FOR SEGMENT      9
FROM FILE UNIT NUMBER     56

          TIMES                    INFLOWS
         0.0000000000E+00     0.1000000000E+03
         0.8640000000E+05     0.1000000000E+03
         0.1730000000E+06     0.1000000000E+03
         0.2590000000E+06     0.1000000000E+03
         0.3460000000E+06     0.1000000000E+03
         0.4320000000E+06     0.1000000000E+03
         0.5180000000E+06     0.1000000000E+03
         0.6050000000E+06     0.1000000000E+03
         0.6910000000E+06     0.1000000000E+03
         0.7780000000E+06     0.1000000000E+03
         0.8640000000E+06     0.1000000000E+03
         0.9500000000E+06     0.1000000000E+03
         0.1040000000E+07     0.1000000000E+03
         0.1120000000E+07     0.1000000000E+03
         0.1210000000E+07     0.1000000000E+03
         0.1300000000E+07     0.1000000000E+03
         0.1380000000E+07     0.1000000000E+03
         0.1470000000E+07     0.1000000000E+03
         0.1560000000E+07     0.1000000000E+03
         0.1640000000E+07     0.1000000000E+03
         0.1730000000E+07     0.1000000000E+03
         0.1810000000E+07     0.1000000000E+03
         0.1900000000E+07     0.1000000000E+03
         0.1990000000E+07     0.1000000000E+03
         0.2070000000E+07     0.1000000000E+03
         0.2160000000E+07     0.1000000000E+03
         0.2250000000E+07     0.1000000000E+03
         0.2330000000E+07     0.1000000000E+03
         0.2420000000E+07     0.1000000000E+03
         0.2510000000E+07     0.1000000000E+03
         0.2590000000E+07     0.1000000000E+03
         0.2680000000E+07     0.1000000000E+03
         0.2760000000E+07     0.1000000000E+03
         0.2850000000E+07     0.1000000000E+03
         0.2940000000E+07     0.1000000000E+03
         0.3020000000E+07     0.1000000000E+03
         0.3110000000E+07     0.1000000000E+03
         0.3200000000E+07     0.1000000000E+03
         0.3280000000E+07     0.1000000000E+03
         0.3370000000E+07     0.1000000000E+03
         0.3460000000E+07     0.1000000000E+03
         0.3540000000E+07     0.1000000000E+03
         0.3630000000E+07     0.1000000000E+03
         0.3720000000E+07     0.1000000000E+03
         0.3800000000E+07     0.1000000000E+03
         0.3890000000E+07     0.1000000000E+03
         0.3970000000E+07     0.1000000000E+03
         0.4060000000E+07     0.1000000000E+03
         0.4150000000E+07     0.1000000000E+03
         0.4230000000E+07     0.1000000000E+03
         0.4320000000E+07     0.1000000000E+03
         0.4410000000E+07     0.1000000000E+03
         0.4490000000E+07     0.1000000000E+03
         0.4580000000E+07     0.1000000000E+03
         0.4670000000E+07     0.1000000000E+03
         0.4750000000E+07     0.1000000000E+03
         0.4840000000E+07     0.1000000000E+03
         0.4920000000E+07     0.1000000000E+03
         0.5010000000E+07     0.1000000000E+03
         0.5100000000E+07     0.1000000000E+03
         0.5180000000E+07     0.1000000000E+03
         0.5270000000E+07     0.1000000000E+03
         0.5360000000E+07     0.1000000000E+03
         0.5440000000E+07     0.1000000000E+03
         0.5530000000E+07     0.1000000000E+03
         0.5620000000E+07     0.1000000000E+03
         0.5700000000E+07     0.1000000000E+03
         0.5790000000E+07     0.1000000000E+03
         0.5880000000E+07     0.1000000000E+03
         0.5960000000E+07     0.1000000000E+03
         0.6050000000E+07     0.1000000000E+03
         0.6130000000E+07     0.1000000000E+03
         0.6220000000E+07     0.1000000000E+03
         0.6310000000E+07     0.1000000000E+03
         0.6390000000E+07     0.1000000000E+03
         0.6480000000E+07     0.1000000000E+03
         0.6570000000E+07     0.1000000000E+03
         0.6650000000E+07     0.1000000000E+03
         0.6740000000E+07     0.1000000000E+03
         0.6830000000E+07     0.1000000000E+03
         0.6910000000E+07     0.1000000000E+03
         0.7000000000E+07     0.1000000000E+03
         0.7080000000E+07     0.1000000000E+03
         0.7170000000E+07     0.1000000000E+03
         0.7260000000E+07     0.1000000000E+03
         0.7340000000E+07     0.1000000000E+03
         0.7430000000E+07     0.1000000000E+03
         0.7520000000E+07     0.1000000000E+03
         0.7600000000E+07     0.1000000000E+03
         0.7690000000E+07     0.1000000000E+03
         0.7780000000E+07     0.1000000000E+03
         0.7860000000E+07     0.1000000000E+03
         0.7950000000E+07     0.1000000000E+03
         0.8040000000E+07     0.1000000000E+03
         0.8120000000E+07     0.1000000000E+03
         0.8210000000E+07     0.1000000000E+03
         0.8290000000E+07     0.1000000000E+03
         0.8380000000E+07     0.1000000000E+03
         0.8470000000E+07     0.1000000000E+03
         0.8550000000E+07     0.1000000000E+03
         0.8640000000E+07     0.1000000000E+03
         0.8730000000E+07     0.1000000000E+03
         0.8810000000E+07     0.1000000000E+03
         0.8900000000E+07     0.1000000000E+03
         0.8990000000E+07     0.1000000000E+03
         0.9070000000E+07     0.1000000000E+03
         0.9160000000E+07     0.1000000000E+03
         0.9240000000E+07     0.1000000000E+03
         0.9330000000E+07     0.1000000000E+03
         0.9420000000E+07     0.1000000000E+03
         0.9500000000E+07     0.1000000000E+03
         0.9590000000E+07     0.1000000000E+03
         0.9680000000E+07     0.1000000000E+03
         0.9760000000E+07     0.1000000000E+03
         0.9850000000E+07     0.1000000000E+03
         0.9940000000E+07     0.1000000000E+03
         0.1000000000E+08     0.1000000000E+03
         0.1010000000E+08     0.1000000000E+03
         0.1020000000E+08     0.1000000000E+03
         0.1030000000E+08     0.1000000000E+03
         0.1040000000E+08     0.1000000000E+03
         0.1050000000E+08     0.1000000000E+03
         0.1050000000E+08     0.1000000000E+03
         0.1060000000E+08     0.1000000000E+03
         0.1070000000E+08     0.1000000000E+03
         0.1080000000E+08     0.1000000000E+03
         0.1090000000E+08     0.1000000000E+03
         0.1100000000E+08     0.1000000000E+03
         0.1110000000E+08     0.1000000000E+03
         0.1110000000E+08     0.1000000000E+03
         0.1120000000E+08     0.1000000000E+03
         0.1130000000E+08     0.1000000000E+03
         0.1140000000E+08     0.1000000000E+03
         0.1150000000E+08     0.1000000000E+03
         0.1160000000E+08     0.1000000000E+03
         0.1170000000E+08     0.1000000000E+03
         0.1180000000E+08     0.1000000000E+03
         0.1180000000E+08     0.1000000000E+03
         0.1190000000E+08     0.1000000000E+03
         0.1200000000E+08     0.1000000000E+03
         0.1210000000E+08     0.1000000000E+03
         0.1220000000E+08     0.1000000000E+03
         0.1230000000E+08     0.1000000000E+03
         0.1240000000E+08     0.1000000000E+03
         0.1240000000E+08     0.1000000000E+03
         0.1250000000E+08     0.1000000000E+03
         0.1260000000E+08     0.1000000000E+03
         0.1270000000E+08     0.1000000000E+03
         0.1280000000E+08     0.1000000000E+03
         0.1290000000E+08     0.1000000000E+03
         0.1300000000E+08     0.1000000000E+03
         0.1300000000E+08     0.1000000000E+03
         0.1310000000E+08     0.1000000000E+03
         0.1320000000E+08     0.1000000000E+03
         0.1330000000E+08     0.1000000000E+03
         0.1340000000E+08     0.1000000000E+03
         0.1350000000E+08     0.1000000000E+03
         0.1360000000E+08     0.1000000000E+03
         0.1370000000E+08     0.1000000000E+03
         0.1370000000E+08     0.1000000000E+03
         0.1380000000E+08     0.1000000000E+03
         0.1390000000E+08     0.1000000000E+03
         0.1400000000E+08     0.1000000000E+03
         0.1410000000E+08     0.1000000000E+03
         0.1420000000E+08     0.1000000000E+03
         0.1430000000E+08     0.1000000000E+03
         0.1430000000E+08     0.1000000000E+03
         0.1440000000E+08     0.1000000000E+03
         0.1450000000E+08     0.1000000000E+03
         0.1460000000E+08     0.1000000000E+03
         0.1470000000E+08     0.1000000000E+03
         0.1480000000E+08     0.1000000000E+03
         0.1490000000E+08     0.1000000000E+03
         0.1490000000E+08     0.1000000000E+03
         0.1500000000E+08     0.1000000000E+03
         0.1510000000E+08     0.1000000000E+03
         0.1520000000E+08     0.1000000000E+03
         0.1530000000E+08     0.1000000000E+03
         0.1540000000E+08     0.1000000000E+03
         0.1550000000E+08     0.1000000000E+03
         0.1560000000E+08     0.1000000000E+03
         0.1560000000E+08     0.1000000000E+03
         0.1570000000E+08     0.1000000000E+03
         0.1580000000E+08     0.1000000000E+03
         0.1590000000E+08     0.1000000000E+03
         0.1600000000E+08     0.1000000000E+03
         0.1610000000E+08     0.1000000000E+03
         0.1620000000E+08     0.1000000000E+03
         0.1620000000E+08     0.1000000000E+03
         0.1630000000E+08     0.1000000000E+03
         0.1640000000E+08     0.1000000000E+03
         0.1650000000E+08     0.1000000000E+03
         0.1660000000E+08     0.1000000000E+03
         0.1670000000E+08     0.1000000000E+03
         0.1680000000E+08     0.1000000000E+03
         0.1680000000E+08     0.1000000000E+03
         0.1690000000E+08     0.1000000000E+03
         0.1700000000E+08     0.1000000000E+03
         0.1710000000E+08     0.1000000000E+03
         0.1720000000E+08     0.1000000000E+03
         0.1730000000E+08     0.1000000000E+03
         0.1740000000E+08     0.1000000000E+03
         0.1750000000E+08     0.1000000000E+03
         0.1750000000E+08     0.1000000000E+03
         0.1760000000E+08     0.1000000000E+03
         0.1770000000E+08     0.1000000000E+03
         0.1780000000E+08     0.1000000000E+03
         0.1790000000E+08     0.1000000000E+03
         0.1800000000E+08     0.1000000000E+03
         0.1810000000E+08     0.1000000000E+03
         0.1810000000E+08     0.1000000000E+03
         0.1820000000E+08     0.1000000000E+03
         0.1830000000E+08     0.1000000000E+03
         0.1840000000E+08     0.1000000000E+03
         0.1850000000E+08     0.1000000000E+03
         0.1860000000E+08     0.1000000000E+03
         0.1870000000E+08     0.1000000000E+03
         0.1870000000E+08     0.1000000000E+03
         0.1880000000E+08     0.1000000000E+03
         0.1890000000E+08     0.1000000000E+03
         0.1900000000E+08     0.1000000000E+03
         0.1910000000E+08     0.1000000000E+03
         0.1920000000E+08     0.1000000000E+03
         0.1930000000E+08     0.1000000000E+03
         0.1940000000E+08     0.1000000000E+03
         0.1940000000E+08     0.1000000000E+03
         0.1950000000E+08     0.1000000000E+03
         0.1960000000E+08     0.1000000000E+03
         0.1970000000E+08     0.1000000000E+03
         0.1980000000E+08     0.1000000000E+03
         0.1990000000E+08     0.1000000000E+03
         0.2000000000E+08     0.1000000000E+03
         0.2000000000E+08     0.1000000000E+03
         0.2010000000E+08     0.1000000000E+03
         0.2020000000E+08     0.1000000000E+03
         0.2030000000E+08     0.1000000000E+03
         0.2040000000E+08     0.1000000000E+03
         0.2050000000E+08     0.1000000000E+03
         0.2060000000E+08     0.1000000000E+03
         0.2070000000E+08     0.1000000000E+03
         0.2070000000E+08     0.1000000000E+03
         0.2080000000E+08     0.1000000000E+03
         0.2090000000E+08     0.1000000000E+03
         0.2100000000E+08     0.1000000000E+03
         0.2110000000E+08     0.1000000000E+03
         0.2120000000E+08     0.1000000000E+03
         0.2130000000E+08     0.1000000000E+03
         0.2130000000E+08     0.1000000000E+03
         0.2140000000E+08     0.1000000000E+03
         0.2150000000E+08     0.1000000000E+03
         0.2160000000E+08     0.1000000000E+03
         0.2170000000E+08     0.1000000000E+03
         0.2180000000E+08     0.1000000000E+03
         0.2190000000E+08     0.1000000000E+03
         0.2190000000E+08     0.1000000000E+03
         0.2200000000E+08     0.1000000000E+03
         0.2210000000E+08     0.1000000000E+03
         0.2220000000E+08     0.1000000000E+03
         0.2230000000E+08     0.1000000000E+03
         0.2240000000E+08     0.1000000000E+03
         0.2250000000E+08     0.1000000000E+03
         0.2260000000E+08     0.1000000000E+03
         0.2260000000E+08     0.1000000000E+03
         0.2270000000E+08     0.1000000000E+03
         0.2280000000E+08     0.1000000000E+03
         0.2290000000E+08     0.1000000000E+03
         0.2300000000E+08     0.1000000000E+03
         0.2310000000E+08     0.1000000000E+03
         0.2320000000E+08     0.1000000000E+03
         0.2320000000E+08     0.1000000000E+03
         0.2330000000E+08     0.1000000000E+03
         0.2340000000E+08     0.1000000000E+03
         0.2350000000E+08     0.1000000000E+03
         0.2360000000E+08     0.1000000000E+03
         0.2370000000E+08     0.1000000000E+03
         0.2380000000E+08     0.1000000000E+03
         0.2380000000E+08     0.1000000000E+03
         0.2390000000E+08     0.1000000000E+03
         0.2400000000E+08     0.1000000000E+03
         0.2410000000E+08     0.1000000000E+03
         0.2420000000E+08     0.1000000000E+03
         0.2430000000E+08     0.1000000000E+03
         0.2440000000E+08     0.1000000000E+03
         0.2450000000E+08     0.1000000000E+03
         0.2450000000E+08     0.1000000000E+03
         0.2460000000E+08     0.1000000000E+03
         0.2470000000E+08     0.1000000000E+03
         0.2480000000E+08     0.1000000000E+03
         0.2490000000E+08     0.1000000000E+03
         0.2500000000E+08     0.1000000000E+03
         0.2510000000E+08     0.1000000000E+03
         0.2510000000E+08     0.1000000000E+03
         0.2520000000E+08     0.1000000000E+03
         0.2530000000E+08     0.1000000000E+03
         0.2540000000E+08     0.1000000000E+03
         0.2550000000E+08     0.1000000000E+03
         0.2560000000E+08     0.1000000000E+03
         0.2570000000E+08     0.1000000000E+03
         0.2570000000E+08     0.1000000000E+03
         0.2580000000E+08     0.1000000000E+03
         0.2590000000E+08     0.1000000000E+03
         0.2600000000E+08     0.1000000000E+03
         0.2610000000E+08     0.1000000000E+03
         0.2620000000E+08     0.1000000000E+03
         0.2630000000E+08     0.1000000000E+03
         0.2640000000E+08     0.1000000000E+03
         0.2640000000E+08     0.1000000000E+03
         0.2650000000E+08     0.1000000000E+03
         0.2660000000E+08     0.1000000000E+03
         0.2670000000E+08     0.1000000000E+03
         0.2680000000E+08     0.1000000000E+03
         0.2690000000E+08     0.1000000000E+03
         0.2700000000E+08     0.1000000000E+03
         0.2700000000E+08     0.1000000000E+03
         0.2710000000E+08     0.1000000000E+03
         0.2720000000E+08     0.1000000000E+03
         0.2730000000E+08     0.1000000000E+03
         0.2740000000E+08     0.1000000000E+03
         0.2750000000E+08     0.1000000000E+03
         0.2760000000E+08     0.1000000000E+03
         0.2760000000E+08     0.1000000000E+03
         0.2770000000E+08     0.1000000000E+03
         0.2780000000E+08     0.1000000000E+03
         0.2790000000E+08     0.1000000000E+03
         0.2800000000E+08     0.1000000000E+03
         0.2810000000E+08     0.1000000000E+03
         0.2820000000E+08     0.1000000000E+03
         0.2830000000E+08     0.1000000000E+03
         0.2830000000E+08     0.1000000000E+03
         0.2840000000E+08     0.1000000000E+03
         0.2850000000E+08     0.1000000000E+03
         0.2860000000E+08     0.1000000000E+03
         0.2870000000E+08     0.1000000000E+03
         0.2880000000E+08     0.1000000000E+03
         0.2890000000E+08     0.1000000000E+03
         0.2890000000E+08     0.1000000000E+03
         0.2900000000E+08     0.1000000000E+03
         0.2910000000E+08     0.1000000000E+03
         0.2920000000E+08     0.1000000000E+03
         0.2930000000E+08     0.1000000000E+03
         0.2940000000E+08     0.1000000000E+03
         0.2950000000E+08     0.1000000000E+03
         0.2950000000E+08     0.1000000000E+03
         0.2960000000E+08     0.1000000000E+03
         0.2970000000E+08     0.1000000000E+03
         0.2980000000E+08     0.1000000000E+03
         0.2990000000E+08     0.1000000000E+03
         0.3000000000E+08     0.1000000000E+03
         0.3010000000E+08     0.1000000000E+03
         0.3020000000E+08     0.1000000000E+03
         0.3020000000E+08     0.1000000000E+03
         0.3030000000E+08     0.1000000000E+03
         0.3040000000E+08     0.1000000000E+03
         0.3050000000E+08     0.1000000000E+03
         0.3060000000E+08     0.1000000000E+03
         0.3070000000E+08     0.1000000000E+03
         0.3080000000E+08     0.1000000000E+03
         0.3080000000E+08     0.1000000000E+03
         0.3090000000E+08     0.1000000000E+03
         0.3100000000E+08     0.1000000000E+03
         0.3110000000E+08     0.1000000000E+03
         0.3120000000E+08     0.1000000000E+03
         0.3130000000E+08     0.1000000000E+03
         0.3140000000E+08     0.1000000000E+03
         0.3150000000E+08     0.1000000000E+03
         0.3150000000E+08     0.1000000000E+03
         0.3160000000E+08     0.1000000000E+03
         0.3170000000E+08     0.1000000000E+03
         0.3180000000E+08     0.1000000000E+03
         0.3190000000E+08     0.1000000000E+03
         0.3200000000E+08     0.1000000000E+03
         0.3210000000E+08     0.1000000000E+03
         0.3210000000E+08     0.1000000000E+03
         0.3220000000E+08     0.1000000000E+03
         0.3230000000E+08     0.1000000000E+03
         0.3240000000E+08     0.1000000000E+03
         0.3250000000E+08     0.1000000000E+03
         0.3260000000E+08     0.1000000000E+03
         0.3270000000E+08     0.1000000000E+03
         0.3270000000E+08     0.1000000000E+03
         0.3280000000E+08     0.1000000000E+03
         0.3290000000E+08     0.1000000000E+03
         0.3300000000E+08     0.1000000000E+03
         0.3310000000E+08     0.1000000000E+03
         0.3320000000E+08     0.1000000000E+03
         0.3330000000E+08     0.1000000000E+03
         0.3340000000E+08     0.1000000000E+03
         0.3340000000E+08     0.1000000000E+03
         0.3350000000E+08     0.1000000000E+03
         0.3360000000E+08     0.1000000000E+03
         0.3370000000E+08     0.1000000000E+03
         0.3380000000E+08     0.1000000000E+03
         0.3390000000E+08     0.1000000000E+03
         0.3400000000E+08     0.1000000000E+03
         0.3400000000E+08     0.1000000000E+03
         0.3410000000E+08     0.1000000000E+03
         0.3420000000E+08     0.1000000000E+03
         0.3430000000E+08     0.1000000000E+03
         0.3440000000E+08     0.1000000000E+03
         0.3450000000E+08     0.1000000000E+03
         0.3460000000E+08     0.1000000000E+03
         0.3460000000E+08     0.1000000000E+03
         0.3470000000E+08     0.1000000000E+03
         0.3480000000E+08     0.1000000000E+03
         0.3490000000E+08     0.1000000000E+03
         0.3500000000E+08     0.1000000000E+03
         0.3510000000E+08     0.1000000000E+03
         0.3520000000E+08     0.1000000000E+03
         0.3530000000E+08     0.1000000000E+03
         0.3530000000E+08     0.1000000000E+03
         0.3540000000E+08     0.1000000000E+03
         0.3550000000E+08     0.1000000000E+03
         0.3560000000E+08     0.1000000000E+03
         0.3570000000E+08     0.1000000000E+03
         0.3580000000E+08     0.1000000000E+03
         0.3590000000E+08     0.1000000000E+03
         0.3590000000E+08     0.1000000000E+03
         0.3600000000E+08     0.1000000000E+03
         0.3610000000E+08     0.1000000000E+03
         0.3620000000E+08     0.1000000000E+03
         0.3630000000E+08     0.1000000000E+03
         0.3640000000E+08     0.1000000000E+03
         0.3650000000E+08     0.1000000000E+03
         0.3650000000E+08     0.1000000000E+03
         0.3660000000E+08     0.1000000000E+03
         0.3670000000E+08     0.1000000000E+03
         0.3680000000E+08     0.1000000000E+03
         0.3690000000E+08     0.1000000000E+03
         0.3700000000E+08     0.1000000000E+03
         0.3710000000E+08     0.1000000000E+03
         0.3720000000E+08     0.1000000000E+03
         0.3720000000E+08     0.1000000000E+03
         0.3730000000E+08     0.1000000000E+03
         0.3740000000E+08     0.1000000000E+03
         0.3750000000E+08     0.1000000000E+03
         0.3760000000E+08     0.1000000000E+03
         0.3770000000E+08     0.1000000000E+03
         0.3780000000E+08     0.1000000000E+03
         0.3780000000E+08     0.1000000000E+03
         0.3790000000E+08     0.1000000000E+03
         0.3800000000E+08     0.1000000000E+03
         0.3810000000E+08     0.1000000000E+03
         0.3820000000E+08     0.1000000000E+03
         0.3830000000E+08     0.1000000000E+03
         0.3840000000E+08     0.1000000000E+03
         0.3840000000E+08     0.1000000000E+03
         0.3850000000E+08     0.1000000000E+03
         0.3860000000E+08     0.1000000000E+03
         0.3870000000E+08     0.1000000000E+03
         0.3880000000E+08     0.1000000000E+03
         0.3890000000E+08     0.1000000000E+03
         0.3900000000E+08     0.1000000000E+03
         0.3910000000E+08     0.1000000000E+03
         0.3910000000E+08     0.1000000000E+03
         0.3920000000E+08     0.1000000000E+03
         0.3930000000E+08     0.1000000000E+03
         0.3940000000E+08     0.1000000000E+03
         0.3950000000E+08     0.1000000000E+03
         0.3960000000E+08     0.1000000000E+03
         0.3970000000E+08     0.1000000000E+03
         0.3970000000E+08     0.1000000000E+03
         0.3980000000E+08     0.1000000000E+03
         0.3990000000E+08     0.1000000000E+03
         0.4000000000E+08     0.1000000000E+03
         0.4010000000E+08     0.1000000000E+03
         0.4020000000E+08     0.1000000000E+03
         0.4030000000E+08     0.1000000000E+03
         0.4030000000E+08     0.1000000000E+03
         0.4040000000E+08     0.1000000000E+03
         0.4050000000E+08     0.1000000000E+03
         0.4060000000E+08     0.1000000000E+03
         0.4070000000E+08     0.1000000000E+03
         0.4080000000E+08     0.1000000000E+03
         0.4090000000E+08     0.1000000000E+03
         0.4100000000E+08     0.1000000000E+03
         0.4100000000E+08     0.1000000000E+03
         0.4110000000E+08     0.1000000000E+03
         0.4120000000E+08     0.1000000000E+03
         0.4130000000E+08     0.1000000000E+03
         0.4140000000E+08     0.1000000000E+03
         0.4150000000E+08     0.1000000000E+03
         0.4160000000E+08     0.1000000000E+03
         0.4160000000E+08     0.1000000000E+03
         0.4170000000E+08     0.1000000000E+03
         0.4180000000E+08     0.1000000000E+03
         0.4190000000E+08     0.1000000000E+03
         0.4200000000E+08     0.1000000000E+03
         0.4210000000E+08     0.1000000000E+03
         0.4220000000E+08     0.1000000000E+03
         0.4230000000E+08     0.1000000000E+03
         0.4230000000E+08     0.1000000000E+03
         0.4240000000E+08     0.1000000000E+03
         0.4250000000E+08     0.1000000000E+03
         0.4260000000E+08     0.1000000000E+03
         0.4270000000E+08     0.1000000000E+03
         0.4280000000E+08     0.1000000000E+03
         0.4290000000E+08     0.1000000000E+03
         0.4290000000E+08     0.1000000000E+03
         0.4300000000E+08     0.1000000000E+03
         0.4310000000E+08     0.1000000000E+03
         0.4320000000E+08     0.1000000000E+03
         0.4330000000E+08     0.1000000000E+03
         0.4340000000E+08     0.1000000000E+03
         0.4350000000E+08     0.1000000000E+03
         0.4350000000E+08     0.1000000000E+03
         0.4360000000E+08     0.1000000000E+03
         0.4370000000E+08     0.1000000000E+03
         0.4380000000E+08     0.1000000000E+03
         0.4390000000E+08     0.1000000000E+03
         0.4400000000E+08     0.1000000000E+03
         0.4410000000E+08     0.1000000000E+03
         0.4420000000E+08     0.1000000000E+03
         0.4420000000E+08     0.1000000000E+03
         0.4430000000E+08     0.1000000000E+03
         0.4440000000E+08     0.1000000000E+03
         0.4450000000E+08     0.1000000000E+03
         0.4460000000E+08     0.1000000000E+03
         0.4470000000E+08     0.1000000000E+03
         0.4480000000E+08     0.1000000000E+03
         0.4480000000E+08     0.1000000000E+03
         0.4490000000E+08     0.1000000000E+03
         0.4500000000E+08     0.1000000000E+03
         0.4510000000E+08     0.1000000000E+03
         0.4520000000E+08     0.1000000000E+03
         0.4530000000E+08     0.1000000000E+03
         0.4540000000E+08     0.1000000000E+03
         0.4540000000E+08     0.1000000000E+03
         0.4550000000E+08     0.1000000000E+03
         0.4560000000E+08     0.1000000000E+03
         0.4570000000E+08     0.1000000000E+03
         0.4580000000E+08     0.1000000000E+03
         0.4590000000E+08     0.1000000000E+03
         0.4600000000E+08     0.1000000000E+03
         0.4610000000E+08     0.1000000000E+03
         0.4610000000E+08     0.1000000000E+03
         0.4620000000E+08     0.1000000000E+03
         0.4630000000E+08     0.1000000000E+03
         0.4640000000E+08     0.1000000000E+03
         0.4650000000E+08     0.1000000000E+03
         0.4660000000E+08     0.1000000000E+03
         0.4670000000E+08     0.1000000000E+03
         0.4670000000E+08     0.1000000000E+03
         0.4680000000E+08     0.1000000000E+03
         0.4690000000E+08     0.1000000000E+03
         0.4700000000E+08     0.1000000000E+03
         0.4710000000E+08     0.1000000000E+03
         0.4720000000E+08     0.1000000000E+03
         0.4730000000E+08     0.1000000000E+03
         0.4730000000E+08     0.1000000000E+03
         0.4740000000E+08     0.1000000000E+03
         0.4750000000E+08     0.1000000000E+03
         0.4760000000E+08     0.1000000000E+03
         0.4770000000E+08     0.1000000000E+03
         0.4780000000E+08     0.1000000000E+03
         0.4790000000E+08     0.1000000000E+03
         0.4800000000E+08     0.1000000000E+03
         0.4800000000E+08     0.1000000000E+03
         0.4810000000E+08     0.1000000000E+03
         0.4820000000E+08     0.1000000000E+03
         0.4830000000E+08     0.1000000000E+03
         0.4840000000E+08     0.1000000000E+03
         0.4850000000E+08     0.1000000000E+03
         0.4860000000E+08     0.1000000000E+03
         0.4860000000E+08     0.1000000000E+03
         0.4870000000E+08     0.1000000000E+03
         0.4880000000E+08     0.1000000000E+03
         0.4890000000E+08     0.1000000000E+03
         0.4900000000E+08     0.1000000000E+03
         0.4910000000E+08     0.1000000000E+03
         0.4920000000E+08     0.1000000000E+03
         0.4920000000E+08     0.1000000000E+03
         0.4930000000E+08     0.1000000000E+03
         0.4940000000E+08     0.1000000000E+03
         0.4950000000E+08     0.1000000000E+03
         0.4960000000E+08     0.1000000000E+03
         0.4970000000E+08     0.1000000000E+03
         0.4980000000E+08     0.1000000000E+03
         0.4990000000E+08     0.1000000000E+03
         0.4990000000E+08     0.1000000000E+03
         0.5000000000E+08     0.1000000000E+03
         0.5010000000E+08     0.1000000000E+03
         0.5020000000E+08     0.1000000000E+03
         0.5030000000E+08     0.1000000000E+03
         0.5040000000E+08     0.1000000000E+03
         0.5050000000E+08     0.1000000000E+03
         0.5050000000E+08     0.1000000000E+03
         0.5060000000E+08     0.1000000000E+03
         0.5070000000E+08     0.1000000000E+03
         0.5080000000E+08     0.1000000000E+03
         0.5090000000E+08     0.1000000000E+03
         0.5100000000E+08     0.1000000000E+03
         0.5110000000E+08     0.1000000000E+03
         0.5110000000E+08     0.1000000000E+03
         0.5120000000E+08     0.1000000000E+03
         0.5130000000E+08     0.1000000000E+03
         0.5140000000E+08     0.1000000000E+03
         0.5150000000E+08     0.1000000000E+03
         0.5160000000E+08     0.1000000000E+03
         0.5170000000E+08     0.1000000000E+03
         0.5180000000E+08     0.1000000000E+03
         0.5180000000E+08     0.1000000000E+03
         0.5190000000E+08     0.1000000000E+03
         0.5200000000E+08     0.1000000000E+03
         0.5210000000E+08     0.1000000000E+03
         0.5220000000E+08     0.1000000000E+03
         0.5230000000E+08     0.1000000000E+03
         0.5240000000E+08     0.1000000000E+03
         0.5240000000E+08     0.1000000000E+03
         0.5250000000E+08     0.1000000000E+03
         0.5260000000E+08     0.1000000000E+03
         0.5270000000E+08     0.1000000000E+03
         0.5280000000E+08     0.1000000000E+03
         0.5290000000E+08     0.1000000000E+03
         0.5300000000E+08     0.1000000000E+03
         0.5310000000E+08     0.1000000000E+03
         0.5310000000E+08     0.1000000000E+03
         0.5320000000E+08     0.1000000000E+03
         0.5330000000E+08     0.1000000000E+03
         0.5340000000E+08     0.1000000000E+03
         0.5350000000E+08     0.1000000000E+03
         0.5360000000E+08     0.1000000000E+03
         0.5370000000E+08     0.1000000000E+03
         0.5370000000E+08     0.1000000000E+03
         0.5380000000E+08     0.1000000000E+03
         0.5390000000E+08     0.1000000000E+03
         0.5400000000E+08     0.1000000000E+03
         0.5410000000E+08     0.1000000000E+03
         0.5420000000E+08     0.1000000000E+03
         0.5430000000E+08     0.1000000000E+03
         0.5430000000E+08     0.1000000000E+03
         0.5440000000E+08     0.1000000000E+03
         0.5450000000E+08     0.1000000000E+03
         0.5460000000E+08     0.1000000000E+03
         0.5470000000E+08     0.1000000000E+03
         0.5480000000E+08     0.1000000000E+03
         0.5490000000E+08     0.1000000000E+03
         0.5500000000E+08     0.1000000000E+03
         0.5500000000E+08     0.1000000000E+03
         0.5510000000E+08     0.1000000000E+03
         0.5520000000E+08     0.1000000000E+03
         0.5530000000E+08     0.1000000000E+03
         0.5540000000E+08     0.1000000000E+03
         0.5550000000E+08     0.1000000000E+03
         0.5560000000E+08     0.1000000000E+03
         0.5560000000E+08     0.1000000000E+03
         0.5570000000E+08     0.1000000000E+03
         0.5580000000E+08     0.1000000000E+03
         0.5590000000E+08     0.1000000000E+03
         0.5600000000E+08     0.1000000000E+03
         0.5610000000E+08     0.1000000000E+03
         0.5620000000E+08     0.1000000000E+03
         0.5620000000E+08     0.1000000000E+03
         0.5630000000E+08     0.1000000000E+03
         0.5640000000E+08     0.1000000000E+03
         0.5650000000E+08     0.1000000000E+03
         0.5660000000E+08     0.1000000000E+03
         0.5670000000E+08     0.1000000000E+03
         0.5680000000E+08     0.1000000000E+03
         0.5690000000E+08     0.1000000000E+03
         0.5690000000E+08     0.1000000000E+03
         0.5700000000E+08     0.1000000000E+03
         0.5710000000E+08     0.1000000000E+03
         0.5720000000E+08     0.1000000000E+03
         0.5730000000E+08     0.1000000000E+03
         0.5740000000E+08     0.1000000000E+03
         0.5750000000E+08     0.1000000000E+03
         0.5750000000E+08     0.1000000000E+03
         0.5760000000E+08     0.1000000000E+03
         0.5770000000E+08     0.1000000000E+03
         0.5780000000E+08     0.1000000000E+03
         0.5790000000E+08     0.1000000000E+03
         0.5800000000E+08     0.1000000000E+03
         0.5810000000E+08     0.1000000000E+03
         0.5810000000E+08     0.1000000000E+03
         0.5820000000E+08     0.1000000000E+03
         0.5830000000E+08     0.1000000000E+03
         0.5840000000E+08     0.1000000000E+03
         0.5850000000E+08     0.1000000000E+03
         0.5860000000E+08     0.1000000000E+03
         0.5870000000E+08     0.1000000000E+03
         0.5880000000E+08     0.1000000000E+03
         0.5880000000E+08     0.1000000000E+03
         0.5890000000E+08     0.1000000000E+03
         0.5900000000E+08     0.1000000000E+03
         0.5910000000E+08     0.1000000000E+03
         0.5920000000E+08     0.1000000000E+03
         0.5930000000E+08     0.1000000000E+03
         0.5940000000E+08     0.1000000000E+03
         0.5940000000E+08     0.1000000000E+03
         0.5950000000E+08     0.1000000000E+03
         0.5960000000E+08     0.1000000000E+03
         0.5970000000E+08     0.1000000000E+03
         0.5980000000E+08     0.1000000000E+03
         0.5990000000E+08     0.1000000000E+03
         0.6000000000E+08     0.1000000000E+03
         0.6000000000E+08     0.1000000000E+03
         0.6010000000E+08     0.1000000000E+03
         0.6020000000E+08     0.1000000000E+03
         0.6030000000E+08     0.1000000000E+03
         0.6040000000E+08     0.1000000000E+03
         0.6050000000E+08     0.1000000000E+03
         0.6060000000E+08     0.1000000000E+03
         0.6070000000E+08     0.1000000000E+03
         0.6070000000E+08     0.1000000000E+03
         0.6080000000E+08     0.1000000000E+03
         0.6090000000E+08     0.1000000000E+03
         0.6100000000E+08     0.1000000000E+03
         0.6110000000E+08     0.1000000000E+03
         0.6120000000E+08     0.1000000000E+03
         0.6130000000E+08     0.1000000000E+03
         0.6130000000E+08     0.1000000000E+03
         0.6140000000E+08     0.1000000000E+03
         0.6150000000E+08     0.1000000000E+03
         0.6160000000E+08     0.1000000000E+03
         0.6170000000E+08     0.1000000000E+03
         0.6180000000E+08     0.1000000000E+03
         0.6190000000E+08     0.1000000000E+03
         0.6190000000E+08     0.1000000000E+03
         0.6200000000E+08     0.1000000000E+03
         0.6210000000E+08     0.1000000000E+03
         0.6220000000E+08     0.1000000000E+03
         0.6230000000E+08     0.1000000000E+03
         0.6240000000E+08     0.1000000000E+03
         0.6250000000E+08     0.1000000000E+03
         0.6260000000E+08     0.1000000000E+03
         0.6260000000E+08     0.1000000000E+03
         0.6270000000E+08     0.1000000000E+03
         0.6280000000E+08     0.1000000000E+03
         0.6290000000E+08     0.1000000000E+03
         0.6300000000E+08     0.1000000000E+03
         0.6310000000E+08     0.1000000000E+03
         0.6320000000E+08     0.1000000000E+03
         0.6320000000E+08     0.1000000000E+03
         0.6330000000E+08     0.1000000000E+03
         0.6340000000E+08     0.1000000000E+03
         0.6350000000E+08     0.1000000000E+03
         0.6360000000E+08     0.1000000000E+03
         0.6370000000E+08     0.1000000000E+03
         0.6380000000E+08     0.1000000000E+03
         0.6390000000E+08     0.1000000000E+03
         0.6390000000E+08     0.1000000000E+03
         0.6400000000E+08     0.1000000000E+03
         0.6410000000E+08     0.1000000000E+03
         0.6420000000E+08     0.1000000000E+03
         0.6430000000E+08     0.1000000000E+03
         0.6440000000E+08     0.1000000000E+03
         0.6450000000E+08     0.1000000000E+03
         0.6450000000E+08     0.1000000000E+03
         0.6460000000E+08     0.1000000000E+03
         0.6470000000E+08     0.1000000000E+03
         0.6480000000E+08     0.1000000000E+03
         0.6490000000E+08     0.1000000000E+03
         0.6500000000E+08     0.1000000000E+03
         0.6510000000E+08     0.1000000000E+03
         0.6510000000E+08     0.1000000000E+03
         0.6520000000E+08     0.1000000000E+03
         0.6530000000E+08     0.1000000000E+03
         0.6540000000E+08     0.1000000000E+03
         0.6550000000E+08     0.1000000000E+03
         0.6560000000E+08     0.1000000000E+03
         0.6570000000E+08     0.1000000000E+03
         0.6580000000E+08     0.1000000000E+03
         0.6590000000E+08     0.1000000000E+03
         0.6600000000E+08     0.1000000000E+03
         0.6610000000E+08     0.1000000000E+03
         0.6610000000E+08     0.1000000000E+03
         0.6620000000E+08     0.1000000000E+03
         0.6630000000E+08     0.1000000000E+03
         0.6640000000E+08     0.1000000000E+03
         0.6650000000E+08     0.1000000000E+03
         0.6660000000E+08     0.1000000000E+03
         0.6670000000E+08     0.1000000000E+03
         0.6670000000E+08     0.1000000000E+03
         0.6680000000E+08     0.1000000000E+03
         0.6690000000E+08     0.1000000000E+03
         0.6700000000E+08     0.1000000000E+03
         0.6710000000E+08     0.1000000000E+03
         0.6720000000E+08     0.1000000000E+03
         0.6730000000E+08     0.1000000000E+03
         0.6730000000E+08     0.1000000000E+03
         0.6740000000E+08     0.1000000000E+03
         0.6750000000E+08     0.1000000000E+03
         0.6760000000E+08     0.1000000000E+03
         0.6770000000E+08     0.1000000000E+03
         0.6780000000E+08     0.1000000000E+03
         0.6790000000E+08     0.1000000000E+03
         0.6800000000E+08     0.1000000000E+03
         0.6810000000E+08     0.1000000000E+03
         0.6820000000E+08     0.1000000000E+03
         0.6830000000E+08     0.1000000000E+03
         0.6830000000E+08     0.1000000000E+03
         0.6840000000E+08     0.1000000000E+03
         0.6850000000E+08     0.1000000000E+03
         0.6860000000E+08     0.1000000000E+03
         0.6870000000E+08     0.1000000000E+03
         0.6880000000E+08     0.1000000000E+03
         0.6890000000E+08     0.1000000000E+03
         0.6890000000E+08     0.1000000000E+03
         0.6900000000E+08     0.1000000000E+03
         0.6910000000E+08     0.1000000000E+03
         0.6920000000E+08     0.1000000000E+03
         0.6930000000E+08     0.1000000000E+03
         0.6940000000E+08     0.1000000000E+03
         0.6950000000E+08     0.1000000000E+03
         0.6950000000E+08     0.1000000000E+03
         0.6960000000E+08     0.1000000000E+03
         0.6970000000E+08     0.1000000000E+03
         0.6980000000E+08     0.1000000000E+03
         0.6990000000E+08     0.1000000000E+03
         0.7000000000E+08     0.1000000000E+03
         0.7010000000E+08     0.1000000000E+03
         0.7020000000E+08     0.1000000000E+03
         0.7030000000E+08     0.1000000000E+03
         0.7040000000E+08     0.1000000000E+03
         0.7050000000E+08     0.1000000000E+03
         0.7050000000E+08     0.1000000000E+03
         0.7060000000E+08     0.1000000000E+03
         0.7070000000E+08     0.1000000000E+03
         0.7080000000E+08     0.1000000000E+03
         0.7090000000E+08     0.1000000000E+03
         0.7100000000E+08     0.1000000000E+03
         0.7110000000E+08     0.1000000000E+03
         0.7110000000E+08     0.1000000000E+03
         0.7120000000E+08     0.1000000000E+03
         0.7130000000E+08     0.1000000000E+03
         0.7140000000E+08     0.1000000000E+03
         0.7150000000E+08     0.1000000000E+03
         0.7160000000E+08     0.1000000000E+03
         0.7170000000E+08     0.1000000000E+03
         0.7170000000E+08     0.1000000000E+03
         0.7180000000E+08     0.1000000000E+03
         0.7190000000E+08     0.1000000000E+03
         0.7200000000E+08     0.1000000000E+03
         0.7210000000E+08     0.1000000000E+03
         0.7220000000E+08     0.1000000000E+03
         0.7230000000E+08     0.1000000000E+03
         0.7240000000E+08     0.1000000000E+03
         0.7250000000E+08     0.1000000000E+03
         0.7260000000E+08     0.1000000000E+03
         0.7270000000E+08     0.1000000000E+03
         0.7270000000E+08     0.1000000000E+03
         0.7280000000E+08     0.1000000000E+03
         0.7290000000E+08     0.1000000000E+03
         0.7300000000E+08     0.1000000000E+03
         0.7310000000E+08     0.1000000000E+03
         0.7320000000E+08     0.1000000000E+03
         0.7330000000E+08     0.1000000000E+03
         0.7330000000E+08     0.1000000000E+03
         0.7340000000E+08     0.1000000000E+03
         0.7350000000E+08     0.1000000000E+03
         0.7360000000E+08     0.1000000000E+03
         0.7370000000E+08     0.1000000000E+03
         0.7380000000E+08     0.1000000000E+03
         0.7390000000E+08     0.1000000000E+03
         0.7390000000E+08     0.1000000000E+03
         0.7400000000E+08     0.1000000000E+03
         0.7410000000E+08     0.1000000000E+03
         0.7420000000E+08     0.1000000000E+03
         0.7430000000E+08     0.1000000000E+03
         0.7440000000E+08     0.1000000000E+03
         0.7450000000E+08     0.1000000000E+03
         0.7460000000E+08     0.1000000000E+03
         0.7470000000E+08     0.1000000000E+03
         0.7480000000E+08     0.1000000000E+03
         0.7490000000E+08     0.1000000000E+03
         0.7490000000E+08     0.1000000000E+03
         0.7500000000E+08     0.1000000000E+03
         0.7510000000E+08     0.1000000000E+03
         0.7520000000E+08     0.1000000000E+03
         0.7530000000E+08     0.1000000000E+03
         0.7540000000E+08     0.1000000000E+03
         0.7550000000E+08     0.1000000000E+03
         0.7550000000E+08     0.1000000000E+03
         0.7560000000E+08     0.1000000000E+03
         0.7570000000E+08     0.1000000000E+03
         0.7580000000E+08     0.1000000000E+03
         0.7590000000E+08     0.1000000000E+03
         0.7600000000E+08     0.1000000000E+03
         0.7610000000E+08     0.1000000000E+03
         0.7610000000E+08     0.1000000000E+03
         0.7620000000E+08     0.1000000000E+03
         0.7630000000E+08     0.1000000000E+03
         0.7640000000E+08     0.1000000000E+03
         0.7650000000E+08     0.1000000000E+03
         0.7660000000E+08     0.1000000000E+03
         0.7670000000E+08     0.1000000000E+03
         0.7680000000E+08     0.1000000000E+03
         0.7690000000E+08     0.1000000000E+03
         0.7700000000E+08     0.1000000000E+03
         0.7710000000E+08     0.1000000000E+03
         0.7710000000E+08     0.1000000000E+03
         0.7720000000E+08     0.1000000000E+03
         0.7730000000E+08     0.1000000000E+03
         0.7740000000E+08     0.1000000000E+03
         0.7750000000E+08     0.1000000000E+03
         0.7760000000E+08     0.1000000000E+03
         0.7770000000E+08     0.1000000000E+03
         0.7770000000E+08     0.1000000000E+03
         0.7780000000E+08     0.1000000000E+03
         0.7790000000E+08     0.1000000000E+03
         0.7800000000E+08     0.1000000000E+03
         0.7810000000E+08     0.1000000000E+03
         0.7820000000E+08     0.1000000000E+03
         0.7830000000E+08     0.1000000000E+03
         0.7830000000E+08     0.1000000000E+03
         0.7840000000E+08     0.1000000000E+03
         0.7850000000E+08     0.1000000000E+03
         0.7860000000E+08     0.1000000000E+03
         0.7870000000E+08     0.1000000000E+03
         0.7880000000E+08     0.1000000000E+03
         0.7890000000E+08     0.1000000000E+03
         0.7900000000E+08     0.1000000000E+03
         0.7910000000E+08     0.1000000000E+03
         0.7920000000E+08     0.1000000000E+03
         0.7930000000E+08     0.1000000000E+03
         0.7930000000E+08     0.1000000000E+03
         0.7940000000E+08     0.1000000000E+03
         0.7950000000E+08     0.1000000000E+03
         0.7960000000E+08     0.1000000000E+03
         0.7970000000E+08     0.1000000000E+03
         0.7980000000E+08     0.1000000000E+03
         0.7990000000E+08     0.1000000000E+03
         0.7990000000E+08     0.1000000000E+03
         0.8000000000E+08     0.1000000000E+03
         0.8010000000E+08     0.1000000000E+03
         0.8020000000E+08     0.1000000000E+03
         0.8030000000E+08     0.1000000000E+03
         0.8040000000E+08     0.1000000000E+03
         0.8050000000E+08     0.1000000000E+03
         0.8050000000E+08     0.1000000000E+03
         0.8060000000E+08     0.1000000000E+03
         0.8070000000E+08     0.1000000000E+03
         0.8080000000E+08     0.1000000000E+03
         0.8090000000E+08     0.1000000000E+03
         0.8100000000E+08     0.1000000000E+03
         0.8110000000E+08     0.1000000000E+03
         0.8120000000E+08     0.1000000000E+03
         0.8130000000E+08     0.1000000000E+03
         0.8140000000E+08     0.1000000000E+03
         0.8150000000E+08     0.1000000000E+03
         0.8150000000E+08     0.1000000000E+03
         0.8160000000E+08     0.1000000000E+03
         0.8170000000E+08     0.1000000000E+03
         0.8180000000E+08     0.1000000000E+03
         0.8190000000E+08     0.1000000000E+03
         0.8200000000E+08     0.1000000000E+03
         0.8210000000E+08     0.1000000000E+03
         0.8210000000E+08     0.1000000000E+03
         0.8220000000E+08     0.1000000000E+03
         0.8230000000E+08     0.1000000000E+03
         0.8240000000E+08     0.1000000000E+03
         0.8250000000E+08     0.1000000000E+03
         0.8260000000E+08     0.1000000000E+03
         0.8270000000E+08     0.1000000000E+03
         0.8270000000E+08     0.1000000000E+03
         0.8280000000E+08     0.1000000000E+03
         0.8290000000E+08     0.1000000000E+03
         0.8300000000E+08     0.1000000000E+03
         0.8310000000E+08     0.1000000000E+03
         0.8320000000E+08     0.1000000000E+03
         0.8330000000E+08     0.1000000000E+03
         0.8340000000E+08     0.1000000000E+03
         0.8350000000E+08     0.1000000000E+03
         0.8360000000E+08     0.1000000000E+03
         0.8370000000E+08     0.1000000000E+03
         0.8370000000E+08     0.1000000000E+03
         0.8380000000E+08     0.1000000000E+03
         0.8390000000E+08     0.1000000000E+03
         0.8400000000E+08     0.1000000000E+03
         0.8410000000E+08     0.1000000000E+03
         0.8420000000E+08     0.1000000000E+03
         0.8430000000E+08     0.1000000000E+03
         0.8430000000E+08     0.1000000000E+03
         0.8440000000E+08     0.1000000000E+03
         0.8450000000E+08     0.1000000000E+03
         0.8460000000E+08     0.1000000000E+03
         0.8470000000E+08     0.1000000000E+03
         0.8480000000E+08     0.1000000000E+03
         0.8490000000E+08     0.1000000000E+03
         0.8490000000E+08     0.1000000000E+03
         0.8500000000E+08     0.1000000000E+03
         0.8510000000E+08     0.1000000000E+03
         0.8520000000E+08     0.1000000000E+03
         0.8530000000E+08     0.1000000000E+03
         0.8540000000E+08     0.1000000000E+03
         0.8550000000E+08     0.1000000000E+03
         0.8560000000E+08     0.1000000000E+03
         0.8570000000E+08     0.1000000000E+03
         0.8580000000E+08     0.1000000000E+03
         0.8590000000E+08     0.1000000000E+03
         0.8590000000E+08     0.1000000000E+03
         0.8600000000E+08     0.1000000000E+03
         0.8610000000E+08     0.1000000000E+03
         0.8620000000E+08     0.1000000000E+03
         0.8630000000E+08     0.1000000000E+03
         0.8640000000E+08     0.1000000000E+03
         0.8650000000E+08     0.1000000000E+03
         0.8650000000E+08     0.1000000000E+03
         0.8660000000E+08     0.1000000000E+03
         0.8670000000E+08     0.1000000000E+03
         0.8680000000E+08     0.1000000000E+03
         0.8690000000E+08     0.1000000000E+03
         0.8700000000E+08     0.1000000000E+03
         0.8710000000E+08     0.1000000000E+03
         0.8710000000E+08     0.1000000000E+03
         0.8720000000E+08     0.1000000000E+03
         0.8730000000E+08     0.1000000000E+03
         0.8740000000E+08     0.1000000000E+03
         0.8750000000E+08     0.1000000000E+03
         0.8760000000E+08     0.1000000000E+03
         0.8770000000E+08     0.1000000000E+03
         0.8780000000E+08     0.1000000000E+03
         0.8790000000E+08     0.1000000000E+03
         0.8800000000E+08     0.1000000000E+03
         0.8810000000E+08     0.1000000000E+03
         0.8810000000E+08     0.1000000000E+03
         0.8820000000E+08     0.1000000000E+03
         0.8830000000E+08     0.1000000000E+03
         0.8840000000E+08     0.1000000000E+03
         0.8850000000E+08     0.1000000000E+03
         0.8860000000E+08     0.1000000000E+03
         0.8870000000E+08     0.1000000000E+03
         0.8870000000E+08     0.1000000000E+03
         0.8880000000E+08     0.1000000000E+03
         0.8890000000E+08     0.1000000000E+03
         0.8900000000E+08     0.1000000000E+03
         0.8910000000E+08     0.1000000000E+03
         0.8920000000E+08     0.1000000000E+03
         0.8930000000E+08     0.1000000000E+03
         0.8930000000E+08     0.1000000000E+03
         0.8940000000E+08     0.1000000000E+03
         0.8950000000E+08     0.1000000000E+03
         0.8960000000E+08     0.1000000000E+03
         0.8970000000E+08     0.1000000000E+03
         0.8980000000E+08     0.1000000000E+03
         0.8990000000E+08     0.1000000000E+03
         0.9000000000E+08     0.1000000000E+03
         0.9010000000E+08     0.1000000000E+03
         0.9020000000E+08     0.1000000000E+03
         0.9030000000E+08     0.1000000000E+03
         0.9030000000E+08     0.1000000000E+03
         0.9040000000E+08     0.1000000000E+03
         0.9050000000E+08     0.1000000000E+03
         0.9060000000E+08     0.1000000000E+03
         0.9070000000E+08     0.1000000000E+03
         0.9080000000E+08     0.1000000000E+03
         0.9090000000E+08     0.1000000000E+03
         0.9090000000E+08     0.1000000000E+03
         0.9100000000E+08     0.1000000000E+03
         0.9110000000E+08     0.1000000000E+03
         0.9120000000E+08     0.1000000000E+03
         0.9130000000E+08     0.1000000000E+03
         0.9140000000E+08     0.1000000000E+03
         0.9150000000E+08     0.1000000000E+03
         0.9150000000E+08     0.1000000000E+03
         0.9160000000E+08     0.1000000000E+03
         0.9170000000E+08     0.1000000000E+03
         0.9180000000E+08     0.1000000000E+03
         0.9190000000E+08     0.1000000000E+03
         0.9200000000E+08     0.1000000000E+03
         0.9210000000E+08     0.1000000000E+03
         0.9220000000E+08     0.1000000000E+03
         0.9230000000E+08     0.1000000000E+03
         0.9240000000E+08     0.1000000000E+03
         0.9250000000E+08     0.1000000000E+03
         0.9250000000E+08     0.1000000000E+03
         0.9260000000E+08     0.1000000000E+03
         0.9270000000E+08     0.1000000000E+03
         0.9280000000E+08     0.1000000000E+03
         0.9290000000E+08     0.1000000000E+03
         0.9300000000E+08     0.1000000000E+03
         0.9310000000E+08     0.1000000000E+03
         0.9310000000E+08     0.1000000000E+03
         0.9320000000E+08     0.1000000000E+03
         0.9330000000E+08     0.1000000000E+03
         0.9340000000E+08     0.1000000000E+03
         0.9350000000E+08     0.1000000000E+03
         0.9360000000E+08     0.1000000000E+03
         0.9370000000E+08     0.1000000000E+03
         0.9370000000E+08     0.1000000000E+03
         0.9380000000E+08     0.1000000000E+03
         0.9390000000E+08     0.1000000000E+03
         0.9400000000E+08     0.1000000000E+03
         0.9410000000E+08     0.1000000000E+03
         0.9420000000E+08     0.1000000000E+03
         0.9430000000E+08     0.1000000000E+03
         0.9440000000E+08     0.1000000000E+03
         0.9450000000E+08     0.1000000000E+03
         0.9460000000E+08     0.1000000000E+03
         0.9470000000E+08     0.1000000000E+03
         0.9470000000E+08     0.1000000000E+03
         0.9480000000E+08     0.1000000000E+03
         0.9490000000E+08     0.1000000000E+03
         0.9500000000E+08     0.1000000000E+03
         0.9510000000E+08     0.1000000000E+03
         0.9520000000E+08     0.1000000000E+03
         0.9530000000E+08     0.1000000000E+03
         0.9530000000E+08     0.1000000000E+03
         0.9540000000E+08     0.1000000000E+03
         0.9550000000E+08     0.1000000000E+03
         0.9560000000E+08     0.1000000000E+03
         0.9570000000E+08     0.1000000000E+03
         0.9580000000E+08     0.1000000000E+03
         0.9590000000E+08     0.1000000000E+03
         0.9590000000E+08     0.1000000000E+03
         0.9600000000E+08     0.1000000000E+03
         0.9610000000E+08     0.1000000000E+03
         0.9620000000E+08     0.1000000000E+03
         0.9630000000E+08     0.1000000000E+03
         0.9640000000E+08     0.1000000000E+03
         0.9650000000E+08     0.1000000000E+03
         0.9660000000E+08     0.1000000000E+03
         0.9670000000E+08     0.1000000000E+03
         0.9680000000E+08     0.1000000000E+03
         0.9690000000E+08     0.1000000000E+03
         0.9690000000E+08     0.1000000000E+03
         0.9700000000E+08     0.1000000000E+03
         0.9710000000E+08     0.1000000000E+03
         0.9720000000E+08     0.1000000000E+03
         0.9730000000E+08     0.1000000000E+03
         0.9740000000E+08     0.1000000000E+03
         0.9750000000E+08     0.1000000000E+03
         0.9750000000E+08     0.1000000000E+03
         0.9760000000E+08     0.1000000000E+03
         0.9770000000E+08     0.1000000000E+03
         0.9780000000E+08     0.1000000000E+03
         0.9790000000E+08     0.1000000000E+03
         0.9800000000E+08     0.1000000000E+03
         0.9810000000E+08     0.1000000000E+03
         0.9810000000E+08     0.1000000000E+03
         0.9820000000E+08     0.1000000000E+03
         0.9830000000E+08     0.1000000000E+03
         0.9840000000E+08     0.1000000000E+03
         0.9850000000E+08     0.1000000000E+03
         0.9860000000E+08     0.1000000000E+03
         0.9870000000E+08     0.1000000000E+03
         0.9880000000E+08     0.1000000000E+03
         0.9890000000E+08     0.1000000000E+03
         0.9900000000E+08     0.1000000000E+03
         0.9910000000E+08     0.1000000000E+03
         0.9910000000E+08     0.1000000000E+03
         0.9920000000E+08     0.1000000000E+03
         0.9930000000E+08     0.1000000000E+03
         0.9940000000E+08     0.1000000000E+03
         0.9950000000E+08     0.1000000000E+03
         0.9960000000E+08     0.1000000000E+03
         0.9970000000E+08     0.1000000000E+03
         0.9970000000E+08     0.1000000000E+03
         0.9980000000E+08     0.1000000000E+03
         0.9990000000E+08     0.1000000000E+03
         0.1000000000E+09     0.1000000000E+03
         0.1001000000E+09     0.1000000000E+03
         0.1002000000E+09     0.1000000000E+03
         0.1003000000E+09     0.1000000000E+03
         0.1003000000E+09     0.1000000000E+03
         0.1004000000E+09     0.1000000000E+03
         0.1005000000E+09     0.1000000000E+03
         0.1006000000E+09     0.1000000000E+03
         0.1007000000E+09     0.1000000000E+03
         0.1008000000E+09     0.1000000000E+03
         0.1009000000E+09     0.1000000000E+03
         0.1010000000E+09     0.1000000000E+03
         0.1011000000E+09     0.1000000000E+03
         0.1012000000E+09     0.1000000000E+03
         0.1013000000E+09     0.1000000000E+03
         0.1013000000E+09     0.1000000000E+03
         0.1014000000E+09     0.1000000000E+03
         0.1015000000E+09     0.1000000000E+03
         0.1016000000E+09     0.1000000000E+03
         0.1017000000E+09     0.1000000000E+03
         0.1018000000E+09     0.1000000000E+03
         0.1019000000E+09     0.1000000000E+03
         0.1019000000E+09     0.1000000000E+03
         0.1020000000E+09     0.1000000000E+03
         0.1021000000E+09     0.1000000000E+03
         0.1022000000E+09     0.1000000000E+03
         0.1023000000E+09     0.1000000000E+03
         0.1024000000E+09     0.1000000000E+03
         0.1025000000E+09     0.1000000000E+03
         0.1025000000E+09     0.1000000000E+03
         0.1026000000E+09     0.1000000000E+03
         0.1027000000E+09     0.1000000000E+03
         0.1028000000E+09     0.1000000000E+03
         0.1029000000E+09     0.1000000000E+03
         0.1030000000E+09     0.1000000000E+03
         0.1031000000E+09     0.1000000000E+03
         0.1032000000E+09     0.1000000000E+03
         0.1033000000E+09     0.1000000000E+03
         0.1034000000E+09     0.1000000000E+03
         0.1035000000E+09     0.1000000000E+03
         0.1035000000E+09     0.1000000000E+03
         0.1036000000E+09     0.1000000000E+03
         0.1037000000E+09     0.1000000000E+03
         0.1038000000E+09     0.1000000000E+03
         0.1039000000E+09     0.1000000000E+03
         0.1040000000E+09     0.1000000000E+03
         0.1041000000E+09     0.1000000000E+03
         0.1041000000E+09     0.1000000000E+03
         0.1042000000E+09     0.1000000000E+03
         0.1043000000E+09     0.1000000000E+03
         0.1044000000E+09     0.1000000000E+03
         0.1045000000E+09     0.1000000000E+03
         0.1046000000E+09     0.1000000000E+03
         0.1047000000E+09     0.1000000000E+03
         0.1047000000E+09     0.1000000000E+03
         0.1048000000E+09     0.1000000000E+03
         0.1049000000E+09     0.1000000000E+03
         0.1050000000E+09     0.1000000000E+03
         0.1051000000E+09     0.1000000000E+03
         0.1052000000E+09     0.1000000000E+03
         0.1053000000E+09     0.1000000000E+03
         0.1054000000E+09     0.1000000000E+03
         0.1055000000E+09     0.1000000000E+03
         0.1056000000E+09     0.1000000000E+03
         0.1057000000E+09     0.1000000000E+03
         0.1057000000E+09     0.1000000000E+03
         0.1058000000E+09     0.1000000000E+03
         0.1059000000E+09     0.1000000000E+03
         0.1060000000E+09     0.1000000000E+03
         0.1061000000E+09     0.1000000000E+03
         0.1062000000E+09     0.1000000000E+03
         0.1063000000E+09     0.1000000000E+03
         0.1063000000E+09     0.1000000000E+03
         0.1064000000E+09     0.1000000000E+03
         0.1065000000E+09     0.1000000000E+03
         0.1066000000E+09     0.1000000000E+03
         0.1067000000E+09     0.1000000000E+03
         0.1068000000E+09     0.1000000000E+03
         0.1069000000E+09     0.1000000000E+03
         0.1069000000E+09     0.1000000000E+03
         0.1070000000E+09     0.1000000000E+03
         0.1071000000E+09     0.1000000000E+03
         0.1072000000E+09     0.1000000000E+03
         0.1073000000E+09     0.1000000000E+03
         0.1074000000E+09     0.1000000000E+03
         0.1075000000E+09     0.1000000000E+03
         0.1076000000E+09     0.1000000000E+03
         0.1077000000E+09     0.1000000000E+03
         0.1078000000E+09     0.1000000000E+03
         0.1079000000E+09     0.1000000000E+03
         0.1079000000E+09     0.1000000000E+03
         0.1080000000E+09     0.1000000000E+03
         0.1081000000E+09     0.1000000000E+03
         0.1082000000E+09     0.1000000000E+03
         0.1083000000E+09     0.1000000000E+03
         0.1084000000E+09     0.1000000000E+03
         0.1085000000E+09     0.1000000000E+03
         0.1085000000E+09     0.1000000000E+03
         0.1086000000E+09     0.1000000000E+03
         0.1087000000E+09     0.1000000000E+03
         0.1088000000E+09     0.1000000000E+03
         0.1089000000E+09     0.1000000000E+03
         0.1090000000E+09     0.1000000000E+03
         0.1091000000E+09     0.1000000000E+03
         0.1091000000E+09     0.1000000000E+03
         0.1092000000E+09     0.1000000000E+03
         0.1093000000E+09     0.1000000000E+03
         0.1094000000E+09     0.1000000000E+03
         0.1095000000E+09     0.1000000000E+03
         0.1096000000E+09     0.1000000000E+03
         0.1097000000E+09     0.1000000000E+03
         0.1098000000E+09     0.1000000000E+03
         0.1099000000E+09     0.1000000000E+03
         0.1100000000E+09     0.1000000000E+03
         0.1101000000E+09     0.1000000000E+03
         0.1101000000E+09     0.1000000000E+03
         0.1102000000E+09     0.1000000000E+03
         0.1103000000E+09     0.1000000000E+03
         0.1104000000E+09     0.1000000000E+03
         0.1105000000E+09     0.1000000000E+03
         0.1106000000E+09     0.1000000000E+03
         0.1107000000E+09     0.1000000000E+03
         0.1107000000E+09     0.1000000000E+03
         0.1108000000E+09     0.1000000000E+03
         0.1109000000E+09     0.1000000000E+03
         0.1110000000E+09     0.1000000000E+03
         0.1111000000E+09     0.1000000000E+03
         0.1112000000E+09     0.1000000000E+03
         0.1113000000E+09     0.1000000000E+03
         0.1113000000E+09     0.1000000000E+03
         0.1114000000E+09     0.1000000000E+03
         0.1115000000E+09     0.1000000000E+03
         0.1116000000E+09     0.1000000000E+03
         0.1117000000E+09     0.1000000000E+03
         0.1118000000E+09     0.1000000000E+03
         0.1119000000E+09     0.1000000000E+03
         0.1120000000E+09     0.1000000000E+03
         0.1121000000E+09     0.1000000000E+03
         0.1122000000E+09     0.1000000000E+03
         0.1123000000E+09     0.1000000000E+03
         0.1123000000E+09     0.1000000000E+03
         0.1124000000E+09     0.1000000000E+03
         0.1125000000E+09     0.1000000000E+03
         0.1126000000E+09     0.1000000000E+03
         0.1127000000E+09     0.1000000000E+03
         0.1128000000E+09     0.1000000000E+03
         0.1129000000E+09     0.1000000000E+03
         0.1129000000E+09     0.1000000000E+03
         0.1130000000E+09     0.1000000000E+03
         0.1131000000E+09     0.1000000000E+03
         0.1132000000E+09     0.1000000000E+03
         0.1133000000E+09     0.1000000000E+03
         0.1134000000E+09     0.1000000000E+03
         0.1135000000E+09     0.1000000000E+03
         0.1135000000E+09     0.1000000000E+03
         0.1136000000E+09     0.1000000000E+03
         0.1137000000E+09     0.1000000000E+03
         0.1138000000E+09     0.1000000000E+03
         0.1139000000E+09     0.1000000000E+03
         0.1140000000E+09     0.1000000000E+03
         0.1141000000E+09     0.1000000000E+03
         0.1142000000E+09     0.1000000000E+03
         0.1143000000E+09     0.1000000000E+03
         0.1144000000E+09     0.1000000000E+03
         0.1145000000E+09     0.1000000000E+03
         0.1145000000E+09     0.1000000000E+03
         0.1146000000E+09     0.1000000000E+03
         0.1147000000E+09     0.1000000000E+03
         0.1148000000E+09     0.1000000000E+03
         0.1149000000E+09     0.1000000000E+03
         0.1150000000E+09     0.1000000000E+03
         0.1151000000E+09     0.1000000000E+03
         0.1151000000E+09     0.1000000000E+03
         0.1152000000E+09     0.1000000000E+03
         0.1153000000E+09     0.1000000000E+03
         0.1154000000E+09     0.1000000000E+03
         0.1155000000E+09     0.1000000000E+03
         0.1156000000E+09     0.1000000000E+03
         0.1157000000E+09     0.1000000000E+03
         0.1157000000E+09     0.1000000000E+03
         0.1158000000E+09     0.1000000000E+03
         0.1159000000E+09     0.1000000000E+03
         0.1160000000E+09     0.1000000000E+03
         0.1161000000E+09     0.1000000000E+03
         0.1162000000E+09     0.1000000000E+03
         0.1163000000E+09     0.1000000000E+03
         0.1164000000E+09     0.1000000000E+03
         0.1165000000E+09     0.1000000000E+03
         0.1166000000E+09     0.1000000000E+03
         0.1167000000E+09     0.1000000000E+03
         0.1167000000E+09     0.1000000000E+03
         0.1168000000E+09     0.1000000000E+03
         0.1169000000E+09     0.1000000000E+03
         0.1170000000E+09     0.1000000000E+03
         0.1171000000E+09     0.1000000000E+03
         0.1172000000E+09     0.1000000000E+03
         0.1173000000E+09     0.1000000000E+03
         0.1173000000E+09     0.1000000000E+03
         0.1174000000E+09     0.1000000000E+03
         0.1175000000E+09     0.1000000000E+03
         0.1176000000E+09     0.1000000000E+03
         0.1177000000E+09     0.1000000000E+03
         0.1178000000E+09     0.1000000000E+03
         0.1179000000E+09     0.1000000000E+03
         0.1179000000E+09     0.1000000000E+03
         0.1180000000E+09     0.1000000000E+03
         0.1181000000E+09     0.1000000000E+03
         0.1182000000E+09     0.1000000000E+03
         0.1183000000E+09     0.1000000000E+03
         0.1184000000E+09     0.1000000000E+03
         0.1185000000E+09     0.1000000000E+03
         0.1186000000E+09     0.1000000000E+03
         0.1187000000E+09     0.1000000000E+03
         0.1188000000E+09     0.1000000000E+03
         0.1189000000E+09     0.1000000000E+03
         0.1189000000E+09     0.1000000000E+03
         0.1190000000E+09     0.1000000000E+03
         0.1191000000E+09     0.1000000000E+03
         0.1192000000E+09     0.1000000000E+03
         0.1193000000E+09     0.1000000000E+03
         0.1194000000E+09     0.1000000000E+03
         0.1195000000E+09     0.1000000000E+03
         0.1195000000E+09     0.1000000000E+03
         0.1196000000E+09     0.1000000000E+03
         0.1197000000E+09     0.1000000000E+03
         0.1198000000E+09     0.1000000000E+03
         0.1199000000E+09     0.1000000000E+03
         0.1200000000E+09     0.1000000000E+03
         0.1201000000E+09     0.1000000000E+03
         0.1201000000E+09     0.1000000000E+03
         0.1202000000E+09     0.1000000000E+03
         0.1203000000E+09     0.1000000000E+03
         0.1204000000E+09     0.1000000000E+03
         0.1205000000E+09     0.1000000000E+03
         0.1206000000E+09     0.1000000000E+03
         0.1207000000E+09     0.1000000000E+03
         0.1208000000E+09     0.1000000000E+03
         0.1209000000E+09     0.1000000000E+03
         0.1210000000E+09     0.1000000000E+03
         0.1211000000E+09     0.1000000000E+03
         0.1211000000E+09     0.1000000000E+03
         0.1212000000E+09     0.1000000000E+03
         0.1213000000E+09     0.1000000000E+03
         0.1214000000E+09     0.1000000000E+03
         0.1215000000E+09     0.1000000000E+03
         0.1216000000E+09     0.1000000000E+03
         0.1217000000E+09     0.1000000000E+03
         0.1217000000E+09     0.1000000000E+03
         0.1218000000E+09     0.1000000000E+03
         0.1219000000E+09     0.1000000000E+03
         0.1220000000E+09     0.1000000000E+03
         0.1221000000E+09     0.1000000000E+03
         0.1222000000E+09     0.1000000000E+03
         0.1223000000E+09     0.1000000000E+03
         0.1223000000E+09     0.1000000000E+03
         0.1224000000E+09     0.1000000000E+03
         0.1225000000E+09     0.1000000000E+03
         0.1226000000E+09     0.1000000000E+03
         0.1227000000E+09     0.1000000000E+03
         0.1228000000E+09     0.1000000000E+03
         0.1229000000E+09     0.1000000000E+03
         0.1230000000E+09     0.1000000000E+03
         0.1231000000E+09     0.1000000000E+03
         0.1232000000E+09     0.1000000000E+03
         0.1233000000E+09     0.1000000000E+03
         0.1233000000E+09     0.1000000000E+03
         0.1234000000E+09     0.1000000000E+03
         0.1235000000E+09     0.1000000000E+03
         0.1236000000E+09     0.1000000000E+03
         0.1237000000E+09     0.1000000000E+03
         0.1238000000E+09     0.1000000000E+03
         0.1239000000E+09     0.1000000000E+03
         0.1239000000E+09     0.1000000000E+03
         0.1240000000E+09     0.1000000000E+03
         0.1241000000E+09     0.1000000000E+03
         0.1242000000E+09     0.1000000000E+03
         0.1243000000E+09     0.1000000000E+03
         0.1244000000E+09     0.1000000000E+03
         0.1245000000E+09     0.1000000000E+03
         0.1245000000E+09     0.1000000000E+03
         0.1246000000E+09     0.1000000000E+03
         0.1247000000E+09     0.1000000000E+03
         0.1248000000E+09     0.1000000000E+03
         0.1249000000E+09     0.1000000000E+03
         0.1250000000E+09     0.1000000000E+03
         0.1251000000E+09     0.1000000000E+03
         0.1252000000E+09     0.1000000000E+03
         0.1253000000E+09     0.1000000000E+03
         0.1254000000E+09     0.1000000000E+03
         0.1255000000E+09     0.1000000000E+03
         0.1255000000E+09     0.1000000000E+03
         0.1256000000E+09     0.1000000000E+03
         0.1257000000E+09     0.1000000000E+03
         0.1258000000E+09     0.1000000000E+03
         0.1259000000E+09     0.1000000000E+03
         0.1260000000E+09     0.1000000000E+03



            AREAL INFILTRATION RATE
 READING ON UNIT   19 WITH FORMAT: (10F4.0)            

            1           2           3           4           5           6           7           8           9          10
 ........................................................................................................................
   1   1.0000E-10  2.0000E-10   0.000       0.000       0.000       0.000       0.000       0.000       0.000       0.000    
   2   2.0000E-10  1.0000E-10  2.0000E-10   0.000       0.000      8.0000E-10  8.0000E-10  5.0000E-10   0.000       0.000    
   3    0.000      5.0000E-10  1.0000E-10  1.0000E-10  8.0000E-10  8.0000E-10  5.0000E-10  5.0000E-10   0.000       0.000    
   4   8.0000E-10  5.0000E-10  1.0000E-10  1.0000E-10  1.0000E-10  1.0000E-10  1.0000E-10  1.0000E-10  2.0000E-10   0.000    
   5   8.0000E-10  5.0000E-10  1.0000E-10  1.0000E-10  1.0000E-10  1.0000E-10  1.0000E-10  1.0000E-10  1.0000E-10  1.0000E-10
   6   8.0000E-10  5.0000E-10  5.0000E-10  2.0000E-10  2.0000E-10  1.0000E-10  1.0000E-10  1.0000E-10  1.0000E-10  5.0000E-10
   7   8.0000E-10  5.0000E-10  5.0000E-10  2.0000E-10  2.0000E-10  1.0000E-10  1.0000E-10  2.0000E-10  2.0000E-10   0.000    
   8    0.000      5.0000E-10  5.0000E-10  2.0000E-10  2.0000E-10  1.0000E-10  1.0000E-10  2.0000E-10  5.0000E-10   0.000    
   9    0.000      5.0000E-10  5.0000E-10  2.0000E-10  2.0000E-10  1.0000E-10  1.0000E-10  2.0000E-10  5.0000E-10   0.000    
  10    0.000      5.0000E-10  5.0000E-10  2.0000E-10  2.0000E-10  1.0000E-10  1.0000E-10  2.0000E-10  5.0000E-10  8.0000E-10
  11    0.000      1.0000E-10  1.0000E-10  1.0000E-10  1.0000E-10  1.0000E-10  1.0000E-10  2.0000E-10  5.0000E-10   0.000    
  12   1.0000E-10  1.0000E-10  1.0000E-10  1.0000E-10  1.0000E-10  1.0000E-10  1.0000E-10  1.0000E-10  2.0000E-10   0.000    
  13   1.0000E-10  1.0000E-10  2.0000E-10  2.0000E-10  2.0000E-10  2.0000E-10  2.0000E-10  1.0000E-10  1.0000E-10   0.000    
  14    0.000      2.0000E-10  5.0000E-10  5.0000E-10  5.0000E-10  5.0000E-10  5.0000E-10  2.0000E-10  1.0000E-10   0.000    
  15    0.000       0.000      8.0000E-10  8.0000E-10  8.0000E-10  8.0000E-10   0.000       0.000       0.000       0.000    

                  ET RATE =  1.000000E-08

      ET EXTINCTION DEPTH =  0.500000    

 EXTINCTION WATER CONTENT =  0.200000    

EXTINCTION WATER CONTENT FOR CELL AT ROW     1, COLUMN     1 IS LESS THAN RESIDUAL WATER CONTENT-- SETTING EXTINCTION WATER CONTENT EQUAL TO RESIDUAL WATER CONTENT

EXTINCTION WATER CONTENT FOR CELL AT ROW     1, COLUMN     2 IS LESS THAN RESIDUAL WATER CONTENT-- SETTING EXTINCTION WATER CONTENT EQUAL TO RESIDUAL WATER CONTENT

EXTINCTION WATER CONTENT FOR CELL AT ROW     2, COLUMN     1 IS LESS THAN RESIDUAL WATER CONTENT-- SETTING EXTINCTION WATER CONTENT EQUAL TO RESIDUAL WATER CONTENT

EXTINCTION WATER CONTENT FOR CELL AT ROW     2, COLUMN     2 IS LESS THAN RESIDUAL WATER CONTENT-- SETTING EXTINCTION WATER CONTENT EQUAL TO RESIDUAL WATER CONTENT

EXTINCTION WATER CONTENT FOR CELL AT ROW     2, COLUMN     3 IS LESS THAN RESIDUAL WATER CONTENT-- SETTING EXTINCTION WATER CONTENT EQUAL TO RESIDUAL WATER CONTENT

EXTINCTION WATER CONTENT FOR CELL AT ROW     2, COLUMN     6 IS LESS THAN RESIDUAL WATER CONTENT-- SETTING EXTINCTION WATER CONTENT EQUAL TO RESIDUAL WATER CONTENT

EXTINCTION WATER CONTENT FOR CELL AT ROW     2, COLUMN     7 IS LESS THAN RESIDUAL WATER CONTENT-- SETTING EXTINCTION WATER CONTENT EQUAL TO RESIDUAL WATER CONTENT

EXTINCTION WATER CONTENT FOR CELL AT ROW     2, COLUMN     8 IS LESS THAN RESIDUAL WATER CONTENT-- SETTING EXTINCTION WATER CONTENT EQUAL TO RESIDUAL WATER CONTENT

EXTINCTION WATER CONTENT FOR CELL AT ROW     3, COLUMN     2 IS LESS THAN RESIDUAL WATER CONTENT-- SETTING EXTINCTION WATER CONTENT EQUAL TO RESIDUAL WATER CONTENT

EXTINCTION WATER CONTENT FOR CELL AT ROW     3, COLUMN     3 IS LESS THAN RESIDUAL WATER CONTENT-- SETTING EXTINCTION WATER CONTENT EQUAL TO RESIDUAL WATER CONTENT

EXTINCTION WATER CONTENT FOR CELL AT ROW     3, COLUMN     4 IS LESS THAN RESIDUAL WATER CONTENT-- SETTING EXTINCTION WATER CONTENT EQUAL TO RESIDUAL WATER CONTENT

EXTINCTION WATER CONTENT FOR CELL AT ROW     3, COLUMN     5 IS LESS THAN RESIDUAL WATER CONTENT-- SETTING EXTINCTION WATER CONTENT EQUAL TO RESIDUAL WATER CONTENT

EXTINCTION WATER CONTENT FOR CELL AT ROW     3, COLUMN     6 IS LESS THAN RESIDUAL WATER CONTENT-- SETTING EXTINCTION WATER CONTENT EQUAL TO RESIDUAL WATER CONTENT

EXTINCTION WATER CONTENT FOR CELL AT ROW     3, COLUMN     7 IS LESS THAN RESIDUAL WATER CONTENT-- SETTING EXTINCTION WATER CONTENT EQUAL TO RESIDUAL WATER CONTENT

EXTINCTION WATER CONTENT FOR CELL AT ROW     3, COLUMN     8 IS LESS THAN RESIDUAL WATER CONTENT-- SETTING EXTINCTION WATER CONTENT EQUAL TO RESIDUAL WATER CONTENT

EXTINCTION WATER CONTENT FOR CELL AT ROW     4, COLUMN     1 IS LESS THAN RESIDUAL WATER CONTENT-- SETTING EXTINCTION WATER CONTENT EQUAL TO RESIDUAL WATER CONTENT

EXTINCTION WATER CONTENT FOR CELL AT ROW     4, COLUMN     2 IS LESS THAN RESIDUAL WATER CONTENT-- SETTING EXTINCTION WATER CONTENT EQUAL TO RESIDUAL WATER CONTENT

EXTINCTION WATER CONTENT FOR CELL AT ROW     4, COLUMN     3 IS LESS THAN RESIDUAL WATER CONTENT-- SETTING EXTINCTION WATER CONTENT EQUAL TO RESIDUAL WATER CONTENT

EXTINCTION WATER CONTENT FOR CELL AT ROW     4, COLUMN     4 IS LESS THAN RESIDUAL WATER CONTENT-- SETTING EXTINCTION WATER CONTENT EQUAL TO RESIDUAL WATER CONTENT

EXTINCTION WATER CONTENT FOR CELL AT ROW     4, COLUMN     5 IS LESS THAN RESIDUAL WATER CONTENT-- SETTING EXTINCTION WATER CONTENT EQUAL TO RESIDUAL WATER CONTENT

EXTINCTION WATER CONTENT FOR CELL AT ROW     4, COLUMN     6 IS LESS THAN RESIDUAL WATER CONTENT-- SETTING EXTINCTION WATER CONTENT EQUAL TO RESIDUAL WATER CONTENT

EXTINCTION WATER CONTENT FOR CELL AT ROW     4, COLUMN     7 IS LESS THAN RESIDUAL WATER CONTENT-- SETTING EXTINCTION WATER CONTENT EQUAL TO RESIDUAL WATER CONTENT

EXTINCTION WATER CONTENT FOR CELL AT ROW     4, COLUMN     8 IS LESS THAN RESIDUAL WATER CONTENT-- SETTING EXTINCTION WATER CONTENT EQUAL TO RESIDUAL WATER CONTENT

EXTINCTION WATER CONTENT FOR CELL AT ROW     4, COLUMN     9 IS LESS THAN RESIDUAL WATER CONTENT-- SETTING EXTINCTION WATER CONTENT EQUAL TO RESIDUAL WATER CONTENT

EXTINCTION WATER CONTENT FOR CELL AT ROW     5, COLUMN     1 IS LESS THAN RESIDUAL WATER CONTENT-- SETTING EXTINCTION WATER CONTENT EQUAL TO RESIDUAL WATER CONTENT

EXTINCTION WATER CONTENT FOR CELL AT ROW     5, COLUMN     2 IS LESS THAN RESIDUAL WATER CONTENT-- SETTING EXTINCTION WATER CONTENT EQUAL TO RESIDUAL WATER CONTENT

EXTINCTION WATER CONTENT FOR CELL AT ROW     5, COLUMN     3 IS LESS THAN RESIDUAL WATER CONTENT-- SETTING EXTINCTION WATER CONTENT EQUAL TO RESIDUAL WATER CONTENT

EXTINCTION WATER CONTENT FOR CELL AT ROW     5, COLUMN     4 IS LESS THAN RESIDUAL WATER CONTENT-- SETTING EXTINCTION WATER CONTENT EQUAL TO RESIDUAL WATER CONTENT

EXTINCTION WATER CONTENT FOR CELL AT ROW     5, COLUMN     5 IS LESS THAN RESIDUAL WATER CONTENT-- SETTING EXTINCTION WATER CONTENT EQUAL TO RESIDUAL WATER CONTENT

EXTINCTION WATER CONTENT FOR CELL AT ROW     5, COLUMN     6 IS LESS THAN RESIDUAL WATER CONTENT-- SETTING EXTINCTION WATER CONTENT EQUAL TO RESIDUAL WATER CONTENT

EXTINCTION WATER CONTENT FOR CELL AT ROW     5, COLUMN     7 IS LESS THAN RESIDUAL WATER CONTENT-- SETTING EXTINCTION WATER CONTENT EQUAL TO RESIDUAL WATER CONTENT

EXTINCTION WATER CONTENT FOR CELL AT ROW     5, COLUMN     8 IS LESS THAN RESIDUAL WATER CONTENT-- SETTING EXTINCTION WATER CONTENT EQUAL TO RESIDUAL WATER CONTENT

EXTINCTION WATER CONTENT FOR CELL AT ROW     5, COLUMN     9 IS LESS THAN RESIDUAL WATER CONTENT-- SETTING EXTINCTION WATER CONTENT EQUAL TO RESIDUAL WATER CONTENT

EXTINCTION WATER CONTENT FOR CELL AT ROW     5, COLUMN    10 IS LESS THAN RESIDUAL WATER CONTENT-- SETTING EXTINCTION WATER CONTENT EQUAL TO RESIDUAL WATER CONTENT

EXTINCTION WATER CONTENT FOR CELL AT ROW     6, COLUMN     1 IS LESS THAN RESIDUAL WATER CONTENT-- SETTING EXTINCTION WATER CONTENT EQUAL TO RESIDUAL WATER CONTENT

EXTINCTION WATER CONTENT FOR CELL AT ROW     6, COLUMN     2 IS LESS THAN RESIDUAL WATER CONTENT-- SETTING EXTINCTION WATER CONTENT EQUAL TO RESIDUAL WATER CONTENT

EXTINCTION WATER CONTENT FOR CELL AT ROW     6, COLUMN     3 IS LESS THAN RESIDUAL WATER CONTENT-- SETTING EXTINCTION WATER CONTENT EQUAL TO RESIDUAL WATER CONTENT

EXTINCTION WATER CONTENT FOR CELL AT ROW     6, COLUMN     4 IS LESS THAN RESIDUAL WATER CONTENT-- SETTING EXTINCTION WATER CONTENT EQUAL TO RESIDUAL WATER CONTENT

EXTINCTION WATER CONTENT FOR CELL AT ROW     6, COLUMN     5 IS LESS THAN RESIDUAL WATER CONTENT-- SETTING EXTINCTION WATER CONTENT EQUAL TO RESIDUAL WATER CONTENT

EXTINCTION WATER CONTENT FOR CELL AT ROW     6, COLUMN     6 IS LESS THAN RESIDUAL WATER CONTENT-- SETTING EXTINCTION WATER CONTENT EQUAL TO RESIDUAL WATER CONTENT

EXTINCTION WATER CONTENT FOR CELL AT ROW     6, COLUMN     7 IS LESS THAN RESIDUAL WATER CONTENT-- SETTING EXTINCTION WATER CONTENT EQUAL TO RESIDUAL WATER CONTENT

EXTINCTION WATER CONTENT FOR CELL AT ROW     6, COLUMN     8 IS LESS THAN RESIDUAL WATER CONTENT-- SETTING EXTINCTION WATER CONTENT EQUAL TO RESIDUAL WATER CONTENT

EXTINCTION WATER CONTENT FOR CELL AT ROW     6, COLUMN     9 IS LESS THAN RESIDUAL WATER CONTENT-- SETTING EXTINCTION WATER CONTENT EQUAL TO RESIDUAL WATER CONTENT

EXTINCTION WATER CONTENT FOR CELL AT ROW     6, COLUMN    10 IS LESS THAN RESIDUAL WATER CONTENT-- SETTING EXTINCTION WATER CONTENT EQUAL TO RESIDUAL WATER CONTENT

EXTINCTION WATER CONTENT FOR CELL AT ROW     7, COLUMN     1 IS LESS THAN RESIDUAL WATER CONTENT-- SETTING EXTINCTION WATER CONTENT EQUAL TO RESIDUAL WATER CONTENT

EXTINCTION WATER CONTENT FOR CELL AT ROW     7, COLUMN     2 IS LESS THAN RESIDUAL WATER CONTENT-- SETTING EXTINCTION WATER CONTENT EQUAL TO RESIDUAL WATER CONTENT

EXTINCTION WATER CONTENT FOR CELL AT ROW     7, COLUMN     3 IS LESS THAN RESIDUAL WATER CONTENT-- SETTING EXTINCTION WATER CONTENT EQUAL TO RESIDUAL WATER CONTENT

EXTINCTION WATER CONTENT FOR CELL AT ROW     7, COLUMN     4 IS LESS THAN RESIDUAL WATER CONTENT-- SETTING EXTINCTION WATER CONTENT EQUAL TO RESIDUAL WATER CONTENT

EXTINCTION WATER CONTENT FOR CELL AT ROW     7, COLUMN     5 IS LESS THAN RESIDUAL WATER CONTENT-- SETTING EXTINCTION WATER CONTENT EQUAL TO RESIDUAL WATER CONTENT

EXTINCTION WATER CONTENT FOR CELL AT ROW     7, COLUMN     6 IS LESS THAN RESIDUAL WATER CONTENT-- SETTING EXTINCTION WATER CONTENT EQUAL TO RESIDUAL WATER CONTENT

EXTINCTION WATER CONTENT FOR CELL AT ROW     7, COLUMN     7 IS LESS THAN RESIDUAL WATER CONTENT-- SETTING EXTINCTION WATER CONTENT EQUAL TO RESIDUAL WATER CONTENT

EXTINCTION WATER CONTENT FOR CELL AT ROW     7, COLUMN     8 IS LESS THAN RESIDUAL WATER CONTENT-- SETTING EXTINCTION WATER CONTENT EQUAL TO RESIDUAL WATER CONTENT

EXTINCTION WATER CONTENT FOR CELL AT ROW     7, COLUMN     9 IS LESS THAN RESIDUAL WATER CONTENT-- SETTING EXTINCTION WATER CONTENT EQUAL TO RESIDUAL WATER CONTENT

EXTINCTION WATER CONTENT FOR CELL AT ROW     8, COLUMN     2 IS LESS THAN RESIDUAL WATER CONTENT-- SETTING EXTINCTION WATER CONTENT EQUAL TO RESIDUAL WATER CONTENT

EXTINCTION WATER CONTENT FOR CELL AT ROW     8, COLUMN     3 IS LESS THAN RESIDUAL WATER CONTENT-- SETTING EXTINCTION WATER CONTENT EQUAL TO RESIDUAL WATER CONTENT

EXTINCTION WATER CONTENT FOR CELL AT ROW     8, COLUMN     4 IS LESS THAN RESIDUAL WATER CONTENT-- SETTING EXTINCTION WATER CONTENT EQUAL TO RESIDUAL WATER CONTENT

EXTINCTION WATER CONTENT FOR CELL AT ROW     8, COLUMN     5 IS LESS THAN RESIDUAL WATER CONTENT-- SETTING EXTINCTION WATER CONTENT EQUAL TO RESIDUAL WATER CONTENT

EXTINCTION WATER CONTENT FOR CELL AT ROW     8, COLUMN     6 IS LESS THAN RESIDUAL WATER CONTENT-- SETTING EXTINCTION WATER CONTENT EQUAL TO RESIDUAL WATER CONTENT

EXTINCTION WATER CONTENT FOR CELL AT ROW     8, COLUMN     7 IS LESS THAN RESIDUAL WATER CONTENT-- SETTING EXTINCTION WATER CONTENT EQUAL TO RESIDUAL WATER CONTENT

EXTINCTION WATER CONTENT FOR CELL AT ROW     8, COLUMN     8 IS LESS THAN RESIDUAL WATER CONTENT-- SETTING EXTINCTION WATER CONTENT EQUAL TO RESIDUAL WATER CONTENT

EXTINCTION WATER CONTENT FOR CELL AT ROW     8, COLUMN     9 IS LESS THAN RESIDUAL WATER CONTENT-- SETTING EXTINCTION WATER CONTENT EQUAL TO RESIDUAL WATER CONTENT

EXTINCTION WATER CONTENT FOR CELL AT ROW     9, COLUMN     2 IS LESS THAN RESIDUAL WATER CONTENT-- SETTING EXTINCTION WATER CONTENT EQUAL TO RESIDUAL WATER CONTENT

EXTINCTION WATER CONTENT FOR CELL AT ROW     9, COLUMN     3 IS LESS THAN RESIDUAL WATER CONTENT-- SETTING EXTINCTION WATER CONTENT EQUAL TO RESIDUAL WATER CONTENT

EXTINCTION WATER CONTENT FOR CELL AT ROW     9, COLUMN     4 IS LESS THAN RESIDUAL WATER CONTENT-- SETTING EXTINCTION WATER CONTENT EQUAL TO RESIDUAL WATER CONTENT

EXTINCTION WATER CONTENT FOR CELL AT ROW     9, COLUMN     5 IS LESS THAN RESIDUAL WATER CONTENT-- SETTING EXTINCTION WATER CONTENT EQUAL TO RESIDUAL WATER CONTENT

EXTINCTION WATER CONTENT FOR CELL AT ROW     9, COLUMN     6 IS LESS THAN RESIDUAL WATER CONTENT-- SETTING EXTINCTION WATER CONTENT EQUAL TO RESIDUAL WATER CONTENT

EXTINCTION WATER CONTENT FOR CELL AT ROW     9, COLUMN     7 IS LESS THAN RESIDUAL WATER CONTENT-- SETTING EXTINCTION WATER CONTENT EQUAL TO RESIDUAL WATER CONTENT

EXTINCTION WATER CONTENT FOR CELL AT ROW     9, COLUMN     8 IS LESS THAN RESIDUAL WATER CONTENT-- SETTING EXTINCTION WATER CONTENT EQUAL TO RESIDUAL WATER CONTENT

EXTINCTION WATER CONTENT FOR CELL AT ROW     9, COLUMN     9 IS LESS THAN RESIDUAL WATER CONTENT-- SETTING EXTINCTION WATER CONTENT EQUAL TO RESIDUAL WATER CONTENT

EXTINCTION WATER CONTENT FOR CELL AT ROW    10, COLUMN     2 IS LESS THAN RESIDUAL WATER CONTENT-- SETTING EXTINCTION WATER CONTENT EQUAL TO RESIDUAL WATER CONTENT

EXTINCTION WATER CONTENT FOR CELL AT ROW    10, COLUMN     3 IS LESS THAN RESIDUAL WATER CONTENT-- SETTING EXTINCTION WATER CONTENT EQUAL TO RESIDUAL WATER CONTENT

EXTINCTION WATER CONTENT FOR CELL AT ROW    10, COLUMN     4 IS LESS THAN RESIDUAL WATER CONTENT-- SETTING EXTINCTION WATER CONTENT EQUAL TO RESIDUAL WATER CONTENT

EXTINCTION WATER CONTENT FOR CELL AT ROW    10, COLUMN     5 IS LESS THAN RESIDUAL WATER CONTENT-- SETTING EXTINCTION WATER CONTENT EQUAL TO RESIDUAL WATER CONTENT

EXTINCTION WATER CONTENT FOR CELL AT ROW    10, COLUMN     6 IS LESS THAN RESIDUAL WATER CONTENT-- SETTING EXTINCTION WATER CONTENT EQUAL TO RESIDUAL WATER CONTENT

EXTINCTION WATER CONTENT FOR CELL AT ROW    10, COLUMN     7 IS LESS THAN RESIDUAL WATER CONTENT-- SETTING EXTINCTION WATER CONTENT EQUAL TO RESIDUAL WATER CONTENT

EXTINCTION WATER CONTENT FOR CELL AT ROW    10, COLUMN     8 IS LESS THAN RESIDUAL WATER CONTENT-- SETTING EXTINCTION WATER CONTENT EQUAL TO RESIDUAL WATER CONTENT

EXTINCTION WATER CONTENT FOR CELL AT ROW    10, COLUMN     9 IS LESS THAN RESIDUAL WATER CONTENT-- SETTING EXTINCTION WATER CONTENT EQUAL TO RESIDUAL WATER CONTENT

EXTINCTION WATER CONTENT FOR CELL AT ROW    10, COLUMN    10 IS LESS THAN RESIDUAL WATER CONTENT-- SETTING EXTINCTION WATER CONTENT EQUAL TO RESIDUAL WATER CONTENT

EXTINCTION WATER CONTENT FOR CELL AT ROW    11, COLUMN     2 IS LESS THAN RESIDUAL WATER CONTENT-- SETTING EXTINCTION WATER CONTENT EQUAL TO RESIDUAL WATER CONTENT

EXTINCTION WATER CONTENT FOR CELL AT ROW    11, COLUMN     3 IS LESS THAN RESIDUAL WATER CONTENT-- SETTING EXTINCTION WATER CONTENT EQUAL TO RESIDUAL WATER CONTENT

EXTINCTION WATER CONTENT FOR CELL AT ROW    11, COLUMN     4 IS LESS THAN RESIDUAL WATER CONTENT-- SETTING EXTINCTION WATER CONTENT EQUAL TO RESIDUAL WATER CONTENT

EXTINCTION WATER CONTENT FOR CELL AT ROW    11, COLUMN     5 IS LESS THAN RESIDUAL WATER CONTENT-- SETTING EXTINCTION WATER CONTENT EQUAL TO RESIDUAL WATER CONTENT

EXTINCTION WATER CONTENT FOR CELL AT ROW    11, COLUMN     6 IS LESS THAN RESIDUAL WATER CONTENT-- SETTING EXTINCTION WATER CONTENT EQUAL TO RESIDUAL WATER CONTENT

EXTINCTION WATER CONTENT FOR CELL AT ROW    11, COLUMN     7 IS LESS THAN RESIDUAL WATER CONTENT-- SETTING EXTINCTION WATER CONTENT EQUAL TO RESIDUAL WATER CONTENT

EXTINCTION WATER CONTENT FOR CELL AT ROW    11, COLUMN     8 IS LESS THAN RESIDUAL WATER CONTENT-- SETTING EXTINCTION WATER CONTENT EQUAL TO RESIDUAL WATER CONTENT

EXTINCTION WATER CONTENT FOR CELL AT ROW    11, COLUMN     9 IS LESS THAN RESIDUAL WATER CONTENT-- SETTING EXTINCTION WATER CONTENT EQUAL TO RESIDUAL WATER CONTENT

EXTINCTION WATER CONTENT FOR CELL AT ROW    12, COLUMN     1 IS LESS THAN RESIDUAL WATER CONTENT-- SETTING EXTINCTION WATER CONTENT EQUAL TO RESIDUAL WATER CONTENT

EXTINCTION WATER CONTENT FOR CELL AT ROW    12, COLUMN     2 IS LESS THAN RESIDUAL WATER CONTENT-- SETTING EXTINCTION WATER CONTENT EQUAL TO RESIDUAL WATER CONTENT

EXTINCTION WATER CONTENT FOR CELL AT ROW    12, COLUMN     3 IS LESS THAN RESIDUAL WATER CONTENT-- SETTING EXTINCTION WATER CONTENT EQUAL TO RESIDUAL WATER CONTENT

EXTINCTION WATER CONTENT FOR CELL AT ROW    12, COLUMN     4 IS LESS THAN RESIDUAL WATER CONTENT-- SETTING EXTINCTION WATER CONTENT EQUAL TO RESIDUAL WATER CONTENT

EXTINCTION WATER CONTENT FOR CELL AT ROW    12, COLUMN     5 IS LESS THAN RESIDUAL WATER CONTENT-- SETTING EXTINCTION WATER CONTENT EQUAL TO RESIDUAL WATER CONTENT

EXTINCTION WATER CONTENT FOR CELL AT ROW    12, COLUMN     6 IS LESS THAN RESIDUAL WATER CONTENT-- SETTING EXTINCTION WATER CONTENT EQUAL TO RESIDUAL WATER CONTENT

EXTINCTION WATER CONTENT FOR CELL AT ROW    12, COLUMN     7 IS LESS THAN RESIDUAL WATER CONTENT-- SETTING EXTINCTION WATER CONTENT EQUAL TO RESIDUAL WATER CONTENT

EXTINCTION WATER CONTENT FOR CELL AT ROW    12, COLUMN     8 IS LESS THAN RESIDUAL WATER CONTENT-- SETTING EXTINCTION WATER CONTENT EQUAL TO RESIDUAL WATER CONTENT

EXTINCTION WATER CONTENT FOR CELL AT ROW    12, COLUMN     9 IS LESS THAN RESIDUAL WATER CONTENT-- SETTING EXTINCTION WATER CONTENT EQUAL TO RESIDUAL WATER CONTENT

EXTINCTION WATER CONTENT FOR CELL AT ROW    13, COLUMN     1 IS LESS THAN RESIDUAL WATER CONTENT-- SETTING EXTINCTION WATER CONTENT EQUAL TO RESIDUAL WATER CONTENT

EXTINCTION WATER CONTENT FOR CELL AT ROW    13, COLUMN     2 IS LESS THAN RESIDUAL WATER CONTENT-- SETTING EXTINCTION WATER CONTENT EQUAL TO RESIDUAL WATER CONTENT

EXTINCTION WATER CONTENT FOR CELL AT ROW    13, COLUMN     3 IS LESS THAN RESIDUAL WATER CONTENT-- SETTING EXTINCTION WATER CONTENT EQUAL TO RESIDUAL WATER CONTENT

EXTINCTION WATER CONTENT FOR CELL AT ROW    13, COLUMN     4 IS LESS THAN RESIDUAL WATER CONTENT-- SETTING EXTINCTION WATER CONTENT EQUAL TO RESIDUAL WATER CONTENT

EXTINCTION WATER CONTENT FOR CELL AT ROW    13, COLUMN     5 IS LESS THAN RESIDUAL WATER CONTENT-- SETTING EXTINCTION WATER CONTENT EQUAL TO RESIDUAL WATER CONTENT

EXTINCTION WATER CONTENT FOR CELL AT ROW    13, COLUMN     6 IS LESS THAN RESIDUAL WATER CONTENT-- SETTING EXTINCTION WATER CONTENT EQUAL TO RESIDUAL WATER CONTENT

EXTINCTION WATER CONTENT FOR CELL AT ROW    13, COLUMN     7 IS LESS THAN RESIDUAL WATER CONTENT-- SETTING EXTINCTION WATER CONTENT EQUAL TO RESIDUAL WATER CONTENT

EXTINCTION WATER CONTENT FOR CELL AT ROW    13, COLUMN     8 IS LESS THAN RESIDUAL WATER CONTENT-- SETTING EXTINCTION WATER CONTENT EQUAL TO RESIDUAL WATER CONTENT

EXTINCTION WATER CONTENT FOR CELL AT ROW    13, COLUMN     9 IS LESS THAN RESIDUAL WATER CONTENT-- SETTING EXTINCTION WATER CONTENT EQUAL TO RESIDUAL WATER CONTENT

EXTINCTION WATER CONTENT FOR CELL AT ROW    14, COLUMN     2 IS LESS THAN RESIDUAL WATER CONTENT-- SETTING EXTINCTION WATER CONTENT EQUAL TO RESIDUAL WATER CONTENT

EXTINCTION WATER CONTENT FOR CELL AT ROW    14, COLUMN     3 IS LESS THAN RESIDUAL WATER CONTENT-- SETTING EXTINCTION WATER CONTENT EQUAL TO RESIDUAL WATER CONTENT

EXTINCTION WATER CONTENT FOR CELL AT ROW    14, COLUMN     4 IS LESS THAN RESIDUAL WATER CONTENT-- SETTING EXTINCTION WATER CONTENT EQUAL TO RESIDUAL WATER CONTENT

EXTINCTION WATER CONTENT FOR CELL AT ROW    14, COLUMN     5 IS LESS THAN RESIDUAL WATER CONTENT-- SETTING EXTINCTION WATER CONTENT EQUAL TO RESIDUAL WATER CONTENT

EXTINCTION WATER CONTENT FOR CELL AT ROW    14, COLUMN     6 IS LESS THAN RESIDUAL WATER CONTENT-- SETTING EXTINCTION WATER CONTENT EQUAL TO RESIDUAL WATER CONTENT

EXTINCTION WATER CONTENT FOR CELL AT ROW    14, COLUMN     7 IS LESS THAN RESIDUAL WATER CONTENT-- SETTING EXTINCTION WATER CONTENT EQUAL TO RESIDUAL WATER CONTENT

EXTINCTION WATER CONTENT FOR CELL AT ROW    14, COLUMN     8 IS LESS THAN RESIDUAL WATER CONTENT-- SETTING EXTINCTION WATER CONTENT EQUAL TO RESIDUAL WATER CONTENT

EXTINCTION WATER CONTENT FOR CELL AT ROW    14, COLUMN     9 IS LESS THAN RESIDUAL WATER CONTENT-- SETTING EXTINCTION WATER CONTENT EQUAL TO RESIDUAL WATER CONTENT

EXTINCTION WATER CONTENT FOR CELL AT ROW    15, COLUMN     3 IS LESS THAN RESIDUAL WATER CONTENT-- SETTING EXTINCTION WATER CONTENT EQUAL TO RESIDUAL WATER CONTENT

EXTINCTION WATER CONTENT FOR CELL AT ROW    15, COLUMN     4 IS LESS THAN RESIDUAL WATER CONTENT-- SETTING EXTINCTION WATER CONTENT EQUAL TO RESIDUAL WATER CONTENT

EXTINCTION WATER CONTENT FOR CELL AT ROW    15, COLUMN     5 IS LESS THAN RESIDUAL WATER CONTENT-- SETTING EXTINCTION WATER CONTENT EQUAL TO RESIDUAL WATER CONTENT

EXTINCTION WATER CONTENT FOR CELL AT ROW    15, COLUMN     6 IS LESS THAN RESIDUAL WATER CONTENT-- SETTING EXTINCTION WATER CONTENT EQUAL TO RESIDUAL WATER CONTENT

       AIR ENTRY PRESSURE =  -1.10000    

            ROOT PRESSURE =  -75.0000    

            ROOT ACTIVITY =   1.00000    
 
 SOLVING FOR HEAD 
                                                   Max.-Head-Change                         Max.-Flux-Residual
  Residual-Control   Outer-Iter.   Inner-Iter.     Column Row Layer    Maximum-Head-Change  Column Row Layer    Maximum-Flux-Residual          L2-NORM 
          0                 1           6             2    2     1      -0.2844046722E+02       3    3    1        -0.3360741367E+01      0.9325516435E+01
          0                 2           6             1    1     1      -0.3130708685E+02       1   13    1        -0.6345307995E+02      0.6366583139E+02
          0                 3           5             1    1     1      -0.1456607566E+01       6   13    1        -0.2214585777E+01      0.3434031939E+01
          0                 4           5             5   13     1      -0.1651348435E+00       5   13    1        -0.3297691598E+00      0.3986822082E+00
          0                 5           4             5   14     1       0.3288147778E-01       5   13    1         0.1672906222E-01      0.2775051919E-01
          0                 6           2             5   14     1      -0.1283967671E-02       5   13    1        -0.6709169479E-03      0.2037732982E-02
          0                 7           1             5   10     1       0.1520186178E-04       5   10    1         0.2525045261E-04      0.8075308572E-04

    ------------------------------------------------
       NWT REQUIRED            7 OUTER ITERATIONS 
       AND A TOTAL OF         29 INNER ITERATIONS.
    ------------------------------------------------

 OUTPUT CONTROL FOR STRESS PERIOD    1   TIME STEP    1
    PRINT BUDGET
    PRINT HEAD FOR ALL LAYERS
    SAVE BUDGET
    SAVE HEAD FOR ALL LAYERS
 UBDSV2 SAVING "   CONSTANT HEAD" ON UNIT 102 AT TIME STEP 1, STRESS PERIOD 1
 UBDSV1 SAVING "FLOW RIGHT FACE " ON UNIT 102 AT TIME STEP 1, STRESS PERIOD 1
 UBDSV1 SAVING "FLOW FRONT FACE " ON UNIT 102 AT TIME STEP 1, STRESS PERIOD 1

  HEAD DEP BOUNDS   PERIOD    1   STEP     1
 BOUNDARY      1   LAYER   1   ROW    13   COL     1   RATE   -0.286999    
 BOUNDARY      2   LAYER   1   ROW    14   COL     9   RATE    0.285642    



 STREAM LISTING     PERIOD      1   STEP        1

 LAYER ROW COL. STREAM  RCH.  FLOW INTO     FLOW TO   FLOW OUT OF   OVRLND.     DIRECT     STREAM       STREAM     STREAM     STREAM   STREAMBED  STREAMBED
                SEG.NO.  NO.  STRM. RCH.    AQUIFER    STRM. RCH.    RUNOFF     PRECIP       ET          HEAD       DEPTH      WIDTH   CONDCTNC.   GRADIENT

   1    1    1     1     1    3.7500E+00  8.5597E-02   3.6644E+00  0.000E+00  0.000E+00  0.000E+00  1.09373E+03  6.817E-01  5.166E+00  2.325E-02  1.227E+00
   1    2    2     1     2    3.6644E+00  1.3158E-01   3.5328E+00  0.000E+00  0.000E+00  0.000E+00  1.08873E+03  6.747E-01  5.115E+00  3.581E-02  1.225E+00
   1    3    3     1     3    3.5328E+00  1.1125E-01   3.4216E+00  0.000E+00  0.000E+00  0.000E+00  1.08309E+03  6.667E-01  5.057E+00  3.034E-02  1.222E+00
   1    3    4     1     4    3.4216E+00  1.0164E-01   3.3199E+00  0.000E+00  0.000E+00  0.000E+00  1.07807E+03  6.595E-01  5.004E+00  2.777E-02  1.220E+00
   1    4    5     2     1    1.3199E+00  2.4920E-01   1.0707E+00  0.000E+00  0.000E+00  0.000E+00  1.07213E+03  1.948E-01  1.200E+01  7.800E-02  1.065E+00
   1    5    6     2     2    1.0707E+00  1.9035E-01   8.8040E-01  0.000E+00  0.000E+00  0.000E+00  1.06668E+03  1.725E-01  1.200E+01  6.000E-02  1.057E+00
   1    6    6     2     3    8.8040E-01  1.8909E-01   6.9131E-01  0.000E+00  0.000E+00  0.000E+00  1.06194E+03  1.515E-01  1.200E+01  6.000E-02  1.050E+00
   1    7    6     2     4    6.9131E-01  1.8771E-01   5.0360E-01  0.000E+00  0.000E+00  0.000E+00  1.05720E+03  1.285E-01  1.200E+01  6.000E-02  1.043E+00
   1    8    6     2     5    5.0360E-01  1.8616E-01   3.1744E-01  0.000E+00  0.000E+00  0.000E+00  1.05246E+03  1.026E-01  1.200E+01  6.000E-02  1.034E+00
   1    3    5     3     1    2.0000E+00  2.8252E-01   1.7175E+00  0.000E+00  0.000E+00  0.000E+00  1.07555E+03  1.909E+00  9.636E+00  7.227E-02  1.955E+00
   1    3    6     3     2    1.7175E+00  2.4905E-01   1.4684E+00  0.000E+00  0.000E+00  0.000E+00  1.07264E+03  1.727E+00  8.909E+00  6.682E-02  1.864E+00
   1    3    7     3     3    1.4684E+00  1.9718E-01   1.2712E+00  0.000E+00  0.000E+00  0.000E+00  1.06987E+03  1.555E+00  8.218E+00  5.547E-02  1.777E+00
   1    4    8     3     4    1.2712E+00  2.2567E-01   1.0456E+00  0.000E+00  0.000E+00  0.000E+00  1.06682E+03  1.364E+00  7.455E+00  6.709E-02  1.682E+00
   1    5    8     3     5    1.0456E+00  1.5790E-01   8.8768E-01  0.000E+00  0.000E+00  0.000E+00  1.06362E+03  1.164E+00  6.655E+00  4.991E-02  1.582E+00
   1    6    8     3     6    8.8768E-01  5.5980E-02   8.3170E-01  0.000E+00  0.000E+00  0.000E+00  1.06158E+03  1.036E+00  6.145E+00  1.844E-02  1.518E+00
   1    5   10     4     1    1.0000E+01  9.0919E-02   9.9091E+00  0.000E+00  0.000E+00  0.000E+00  1.07836E+03  6.368E-01  1.000E+01  2.500E-02  1.212E+00
   1    5    9     4     2    9.9091E+00  1.8158E-01   9.7275E+00  0.000E+00  0.000E+00  0.000E+00  1.07154E+03  6.315E-01  1.000E+01  5.000E-02  1.211E+00
   1    6    8     4     3    9.7275E+00  1.2689E-01   9.6006E+00  0.000E+00  0.000E+00  0.000E+00  1.06381E+03  6.256E-01  1.000E+01  3.500E-02  1.209E+00
   1    6    8     5     1    1.0432E+01  2.2686E-01   1.0205E+01  0.000E+00  0.000E+00  0.000E+00  1.05868E+03  6.790E-01  1.542E+01  6.166E-02  1.226E+00
   1    7    7     5     2    1.0205E+01  2.7894E-01   9.9265E+00  0.000E+00  0.000E+00  0.000E+00  1.05417E+03  6.732E-01  1.519E+01  7.594E-02  1.224E+00
   1    8    7     5     3    9.9265E+00  1.9221E-01   9.7343E+00  0.000E+00  0.000E+00  0.000E+00  1.04992E+03  6.676E-01  1.497E+01  5.241E-02  1.223E+00
   1    8    6     5     4    9.7343E+00  1.3577E-01   9.5985E+00  0.000E+00  0.000E+00  0.000E+00  1.04691E+03  6.637E-01  1.482E+01  3.706E-02  1.221E+00
   1    9    6     6     1    9.5985E+00  2.2097E-01   9.3776E+00  0.000E+00  0.000E+00  0.000E+00  1.04341E+03  6.828E-01  1.200E+01  6.000E-02  1.228E+00
   1   10    7     6     2    9.3776E+00  2.2039E-01   9.1572E+00  0.000E+00  0.000E+00  0.000E+00  1.03885E+03  6.732E-01  1.200E+01  6.000E-02  1.224E+00
   1   11    7     6     3    9.1572E+00  2.1981E-01   8.9374E+00  0.000E+00  0.000E+00  0.000E+00  1.03430E+03  6.636E-01  1.200E+01  6.000E-02  1.221E+00
   1   12    7     6     4    8.9374E+00  2.1923E-01   8.7181E+00  0.000E+00  0.000E+00  0.000E+00  1.02974E+03  6.539E-01  1.200E+01  6.000E-02  1.218E+00
   1   13    7     6     5    8.7181E+00 -1.1600E-01   8.8341E+00  0.000E+00  0.000E+00  0.000E+00  1.02656E+03  6.516E-01  1.200E+01  2.400E-01 -1.611E-01
   1   14    9     7     1    1.5000E+02  1.3341E+00   1.4867E+02  0.000E+00  0.000E+00  0.000E+00  1.03987E+03  2.288E+00  5.529E+01  5.593E-01  7.951E-01
   1   13    8     7     2    1.4867E+02  1.8365E+00   1.4683E+02  0.000E+00  0.000E+00  0.000E+00  1.03478E+03  2.279E+00  5.526E+01  6.148E-01  9.957E-01
   1   13    7     7     3    1.4683E+02  1.4776E+00   1.4535E+02  0.000E+00  0.000E+00  0.000E+00  1.02969E+03  2.270E+00  5.522E+01  5.585E-01  8.819E-01
   1   13    6     8     1    1.5419E+02  8.2938E-01   1.5336E+02  0.000E+00  0.000E+00  0.000E+00  1.02472E+03  2.843E+00  4.123E+01  4.201E-01  6.581E-01
   1   13    5     8     2    1.5336E+02  1.0150E-01   1.5326E+02  0.000E+00  0.000E+00  0.000E+00  1.01846E+03  2.840E+00  4.118E+01  4.196E-01  8.063E-02
   1   13    4     8     3    1.5326E+02 -2.6779E+00   1.5593E+02  0.000E+00  0.000E+00  0.000E+00  1.01222E+03  2.849E+00  4.131E+01  4.210E+00 -2.121E-01
   1   13    3     8     4    1.5593E+02 -3.7559E+00   1.5969E+02  0.000E+00  0.000E+00  0.000E+00  1.00600E+03  2.871E+00  4.163E+01  4.242E+00 -2.951E-01
   1   13    2     8     5    1.5969E+02 -2.6055E+00   1.6229E+02  0.000E+00  0.000E+00  0.000E+00  9.99768E+02  2.893E+00  4.194E+01  4.274E+00 -2.032E-01
   1   13    1     8     6    1.6229E+02 -1.9842E+00   1.6428E+02  0.000E+00  0.000E+00  0.000E+00  9.94783E+02  2.908E+00  4.217E+01  2.578E+00 -2.566E-01
   1    8    6     9     1    3.1744E-01  0.0000E+00   3.1744E-01  0.000E+00  0.000E+00  0.000E+00  1.07904E+03  2.859E-01  4.000E+00  0.000E+00  1.095E+00
   1    8    5     9     2    3.1744E-01  0.0000E+00   3.1744E-01  0.000E+00  0.000E+00  0.000E+00  1.07854E+03  2.859E-01  4.000E+00  0.000E+00  1.095E+00



 UBDSV3 SAVING "           GW ET" ON UNIT  61 AT TIME STEP 1, STRESS PERIOD 1
 UBDSV3 SAVING "    UZF RECHARGE" ON UNIT  61 AT TIME STEP 1, STRESS PERIOD 1
 UBDSV3 SAVING " SURFACE LEAKAGE" ON UNIT  61 AT TIME STEP 1, STRESS PERIOD 1
 UBDSV3 SAVING "       HORT+DUNN" ON UNIT  61 AT TIME STEP 1, STRESS PERIOD 1
 UBDSV3 SAVING "  STORAGE CHANGE" ON UNIT  61 AT TIME STEP 1, STRESS PERIOD 1


UNSATURATED ZONE PACKAGE VOLUMETRIC BUDGET FOR  TIME STEP     1 STRESS PERIOD    1
  ------------------------------------------------------------------------------



     CUMULATIVE VOLUMES      L**3       RATES FOR THIS TIME STEP      L**3/T
     ------------------                 ------------------------

           IN:                                      IN:
           ---                                      ---
        INFILTRATION =       73224.0000          INFILTRATION =           0.8475

          OUT:                                     OUT:
          ----                                     ----
              UZF ET =       0.0000E+00                UZF ET =       0.0000E+00
        UZF RECHARGE =       73224.0000          UZF RECHARGE =           0.8475

            IN - OUT =       0.0000E+00              IN - OUT =       0.0000E+00

          STORAGE:                                 STORAGE:
          --------                                 --------
      STORAGE CHANGE =       0.0000E+00        STORAGE CHANGE =       0.0000E+00

 PERCENT DISCREPANCY IS DIFFERENCE BETWEEN IN-OUT MINUS CHANGE IN STORAGE
 DIVIDED BY THE AVERAGE OF IN AND OUT TIMES 100

 PERCENT DISCREPANCY =           0.00     PERCENT DISCREPANCY =           0.00






1
              HEAD IN LAYER 1 AT END OF TIME STEP 1 IN STRESS PERIOD 1
  ---------------------------------------------------------------------------

           1       2       3       4       5       6       7       8       9      10
 ...................................................................................
   1  1032.36 1031.32 6999.00 6999.00 6999.00 6999.00 6999.00 6999.00 6999.00 6999.00
   2  1031.40 1030.16 1029.57 6999.00 6999.00 1030.68 1030.83 1030.79 6999.00 6999.00
   3  6999.00 1029.27 1028.96 1028.73 1029.27 1029.90 1030.40 1030.36 6999.00 6999.00
   4  1028.56 1028.52 1028.34 1028.16 1028.23 1028.29 1028.78 1029.83 1029.56 6999.00
   5  1028.12 1027.75 1027.58 1027.51 1027.60 1027.81 1027.98 1028.47 1029.09 1029.62
   6  1027.56 1027.01 1026.83 1026.80 1026.92 1027.25 1027.55 1028.07 1028.52 1029.44
   7  1027.07 1026.08 1025.91 1025.95 1026.13 1026.54 1026.97 1027.44 1027.95 6999.00
   8  6999.00 1024.71 1024.75 1024.91 1025.14 1025.64 1026.08 1026.79 1027.35 6999.00
   9  6999.00 1022.69 1023.02 1023.48 1023.87 1024.53 1025.04 1025.79 1026.90 6999.00
  10  6999.00 1019.87 1020.64 1021.68 1022.47 1023.48 1024.39 1025.45 1027.06 1027.71
  11  6999.00 1015.35 1016.78 1019.32 1020.95 1022.68 1024.21 1025.99 1028.18 6999.00
  12  1001.91 1007.94 1012.08 1016.04 1019.32 1022.30 1024.79 1028.19 1031.18 6999.00
  13   995.55 1000.38 1006.88 1012.86 1018.22 1022.74 1027.04 1031.79 1034.63 6999.00
  14  6999.00 1005.79 1008.88 1013.53 1018.29 1022.70 1027.60 1033.07 1037.48 6999.00
  15  6999.00 6999.00 1012.51 1015.23 1018.70 1021.73 6999.00 6999.00 6999.00 6999.00

 HEAD WILL BE SAVED ON UNIT   62 AT END OF TIME STEP    1, STRESS PERIOD    1
1
  VOLUMETRIC BUDGET FOR ENTIRE MODEL AT END OF TIME STEP    1, STRESS PERIOD   1
  ------------------------------------------------------------------------------

     CUMULATIVE VOLUMES      L**3       RATES FOR THIS TIME STEP      L**3/T
     ------------------                 ------------------------

           IN:                                      IN:
           ---                                      ---
             STORAGE     =           0.0000               STORAGE     =           0.0000
       CONSTANT HEAD     =           0.0000         CONSTANT HEAD     =           0.0000
     HEAD DEP BOUNDS     =       24679.4375       HEAD DEP BOUNDS     =           0.2856
      STREAM LEAKAGE     =      889354.3750        STREAM LEAKAGE     =          10.2935
        UZF RECHARGE     =       73223.9531          UZF RECHARGE     =           0.8475
               GW ET     =           0.0000                 GW ET     =           0.0000
     SURFACE LEAKAGE     =           0.0000       SURFACE LEAKAGE     =           0.0000

                TOTAL IN =      987257.7500                  TOTAL IN =          11.4266

          OUT:                                     OUT:
          ----                                     ----
             STORAGE     =           0.0000               STORAGE     =           0.0000
       CONSTANT HEAD     =           0.0000         CONSTANT HEAD     =           0.0000
     HEAD DEP BOUNDS     =       24796.7051       HEAD DEP BOUNDS     =           0.2870
      STREAM LEAKAGE     =      962460.9375        STREAM LEAKAGE     =          11.1396
        UZF RECHARGE     =           0.0000          UZF RECHARGE     =           0.0000
               GW ET     =           0.0000                 GW ET     =           0.0000
     SURFACE LEAKAGE     =           0.0000       SURFACE LEAKAGE     =           0.0000

               TOTAL OUT =      987257.6250                 TOTAL OUT =          11.4266

                IN - OUT =           0.1250                  IN - OUT =       1.9073E-06

     PERCENT DISCREPANCY =           0.00         PERCENT DISCREPANCY =           0.00






         TIME SUMMARY AT END OF TIME STEP    1 IN STRESS PERIOD    1
                    SECONDS     MINUTES      HOURS       DAYS        YEARS
                    -----------------------------------------------------------
   TIME STEP LENGTH  86400.      1440.0      24.000      1.0000     2.73785E-03
 STRESS PERIOD TIME  86400.      1440.0      24.000      1.0000     2.73785E-03
         TOTAL TIME  86400.      1440.0      24.000      1.0000     2.73785E-03
1
1
                            STRESS PERIOD NO.    2, LENGTH =   2630000.    
                            -----------------------------------------------

                              NUMBER OF TIME STEPS =    30

                               MULTIPLIER FOR DELT =     1.000

                            INITIAL TIME STEP SIZE =   87666.66    

 REUSING NON-PARAMETER GHB CELLS FROM LAST STRESS PERIOD

      2 GHB CELLS

 REUSING STREAM SEGMENT DATA FROM LAST STRESS PERIOD



            AREAL INFILTRATION RATE
 READING ON UNIT   19 WITH FORMAT: (FREE)              

            1           2           3           4           5           6           7           8           9          10
 ........................................................................................................................
   1   1.0000E-10  2.0000E-10   0.000       0.000       0.000       0.000       0.000       0.000       0.000       0.000    
   2   2.0000E-10  1.0000E-10  2.0000E-10   0.000       0.000      8.0000E-10  8.0000E-10  5.0000E-10   0.000       0.000    
   3    0.000      5.0000E-10  1.0000E-10  1.0000E-10  8.0000E-10  8.0000E-10  5.0000E-10  5.0000E-10   0.000       0.000    
   4   8.0000E-10  5.0000E-10  1.0000E-10  1.0000E-10  1.0000E-10  1.0000E-10  1.0000E-10  1.0000E-10  2.0000E-10   0.000    
   5   8.0000E-10  5.0000E-10  1.0000E-10  1.0000E-10  1.0000E-10  1.0000E-10  1.0000E-10  1.0000E-10  1.0000E-10  1.0000E-10
   6   8.0000E-10  5.0000E-10  5.0000E-10  2.0000E-10  2.0000E-10  1.0000E-10  1.0000E-10  1.0000E-10  1.0000E-10  5.0000E-10
   7   8.0000E-10  5.0000E-10  5.0000E-10  2.0000E-10  2.0000E-10  1.0000E-10  1.0000E-10  2.0000E-10  2.0000E-10   0.000    
   8    0.000      5.0000E-10  5.0000E-10  2.0000E-10  2.0000E-10  1.0000E-10  1.0000E-10  2.0000E-10  5.0000E-10   0.000    
   9    0.000      5.0000E-10  5.0000E-10  2.0000E-10  2.0000E-10  1.0000E-10  1.0000E-10  2.0000E-10  5.0000E-10   0.000    
  10    0.000      5.0000E-10  5.0000E-10  2.0000E-10  2.0000E-10  1.0000E-10  1.0000E-10  2.0000E-10  5.0000E-10  8.0000E-10
  11    0.000      1.0000E-10  1.0000E-10  1.0000E-10  1.0000E-10  1.0000E-10  1.0000E-10  2.0000E-10  5.0000E-10   0.000    
  12   1.0000E-10  1.0000E-10  1.0000E-10  1.0000E-10  1.0000E-10  1.0000E-10  1.0000E-10  1.0000E-10  2.0000E-10   0.000    
  13   1.0000E-10  1.0000E-10  2.0000E-10  2.0000E-10  2.0000E-10  2.0000E-10  2.0000E-10  1.0000E-10  1.0000E-10   0.000    
  14    0.000      2.0000E-10  5.0000E-10  5.0000E-10  5.0000E-10  5.0000E-10  5.0000E-10  2.0000E-10  1.0000E-10   0.000    
  15    0.000       0.000      8.0000E-10  8.0000E-10  8.0000E-10  8.0000E-10   0.000       0.000       0.000       0.000    

                  ET RATE =  5.000000E-10

 USING ET EXTINCTION DEPTH FROM PREVIOUS STRESS PERIOD. CURRENT PERIOD IS:       2

 USING EXTINCTION WATER CONTENT FROM PREVIOUS STRESS PERIOD. CURRENT PERIOD IS:       2

 USING AIR ENTRY PRESSURE FROM PREVIOUS STRESS PERIOD. CURRENT PERIOD IS:       2

 USING ROOT PRESSURE HEAD FROM PREVIOUS STRESS PERIOD. CURRENT PERIOD IS:       2

 USING ROOT ACTIVITY FROM PREVIOUS STRESS PERIOD. CURRENT PERIOD IS:       2
 
 SOLVING FOR HEAD 
                                                   Max.-Head-Change                         Max.-Flux-Residual
  Residual-Control   Outer-Iter.   Inner-Iter.     Column Row Layer    Maximum-Head-Change  Column Row Layer    Maximum-Flux-Residual          L2-NORM 
          0                 1           2             2    2     1       0.3261894834E-02       2    2    1         0.1705806522E+00      0.3126589396E+00
          0                 2           2             2    2     1      -0.3172939021E-03       2    2    1        -0.1705809728E-01      0.3126522505E-01
          0                 3           1             2    2     1       0.2160653395E-04       2    2    1         0.1194067019E-02      0.2188534447E-02

    ------------------------------------------------
       NWT REQUIRED            3 OUTER ITERATIONS 
       AND A TOTAL OF          5 INNER ITERATIONS.
    ------------------------------------------------

 OUTPUT CONTROL FOR STRESS PERIOD    2   TIME STEP    1
    PRINT BUDGET
    PRINT HEAD FOR ALL LAYERS
    SAVE BUDGET
 UBDSV1 SAVING "         STORAGE" ON UNIT 102 AT TIME STEP 1, STRESS PERIOD 2
 UBDSV2 SAVING "   CONSTANT HEAD" ON UNIT 102 AT TIME STEP 1, STRESS PERIOD 2
 UBDSV1 SAVING "FLOW RIGHT FACE " ON UNIT 102 AT TIME STEP 1, STRESS PERIOD 2
 UBDSV1 SAVING "FLOW FRONT FACE " ON UNIT 102 AT TIME STEP 1, STRESS PERIOD 2

  HEAD DEP BOUNDS   PERIOD    2   STEP     1
 BOUNDARY      1   LAYER   1   ROW    13   COL     1   RATE   -0.286997    
 BOUNDARY      2   LAYER   1   ROW    14   COL     9   RATE    0.285643    



 STREAM LISTING     PERIOD      2   STEP        1

 LAYER ROW COL. STREAM  RCH.  FLOW INTO     FLOW TO   FLOW OUT OF   OVRLND.     DIRECT     STREAM       STREAM     STREAM     STREAM   STREAMBED  STREAMBED
                SEG.NO.  NO.  STRM. RCH.    AQUIFER    STRM. RCH.    RUNOFF     PRECIP       ET          HEAD       DEPTH      WIDTH   CONDCTNC.   GRADIENT

   1    1    1     1     1    1.6500E+01  1.9759E-01   1.6302E+01  0.000E+00  0.000E+00  0.000E+00  1.09409E+03  1.039E+00  1.087E+01  4.893E-02  1.346E+00
   1    2    2     1     2    1.6302E+01  3.0466E-01   1.5998E+01  0.000E+00  0.000E+00  0.000E+00  1.08909E+03  1.034E+00  1.079E+01  7.552E-02  1.345E+00
   1    3    3     1     3    1.5998E+01  2.5853E-01   1.5739E+01  0.000E+00  0.000E+00  0.000E+00  1.08345E+03  1.029E+00  1.070E+01  6.417E-02  1.343E+00
   1    3    4     1     4    1.5739E+01  2.3700E-01   1.5502E+01  0.000E+00  0.000E+00  0.000E+00  1.07843E+03  1.024E+00  1.061E+01  5.889E-02  1.341E+00
   1    4    5     2     1    1.3502E+01  2.9865E-01   1.3204E+01  0.000E+00  0.000E+00  0.000E+00  1.07276E+03  8.289E-01  1.200E+01  7.800E-02  1.276E+00
   1    5    6     2     2    1.3204E+01  2.2914E-01   1.2974E+01  0.000E+00  0.000E+00  0.000E+00  1.06733E+03  8.190E-01  1.200E+01  6.000E-02  1.273E+00
   1    6    6     2     3    1.2974E+01  2.2862E-01   1.2746E+01  0.000E+00  0.000E+00  0.000E+00  1.06260E+03  8.104E-01  1.200E+01  6.000E-02  1.270E+00
   1    7    6     2     4    1.2746E+01  2.2810E-01   1.2518E+01  0.000E+00  0.000E+00  0.000E+00  1.05788E+03  8.017E-01  1.200E+01  6.000E-02  1.267E+00
   1    8    6     2     5    1.2518E+01  2.2758E-01   1.2290E+01  0.000E+00  0.000E+00  0.000E+00  1.05315E+03  7.930E-01  1.200E+01  6.000E-02  1.264E+00
   1    3    5     3     1    2.0000E+00  2.8252E-01   1.7175E+00  0.000E+00  0.000E+00  0.000E+00  1.07555E+03  1.909E+00  9.636E+00  7.227E-02  1.955E+00
   1    3    6     3     2    1.7175E+00  2.4905E-01   1.4684E+00  0.000E+00  0.000E+00  0.000E+00  1.07264E+03  1.727E+00  8.909E+00  6.682E-02  1.864E+00
   1    3    7     3     3    1.4684E+00  1.9718E-01   1.2712E+00  0.000E+00  0.000E+00  0.000E+00  1.06987E+03  1.555E+00  8.218E+00  5.547E-02  1.777E+00
   1    4    8     3     4    1.2712E+00  2.2567E-01   1.0456E+00  0.000E+00  0.000E+00  0.000E+00  1.06682E+03  1.364E+00  7.455E+00  6.709E-02  1.682E+00
   1    5    8     3     5    1.0456E+00  1.5790E-01   8.8768E-01  0.000E+00  0.000E+00  0.000E+00  1.06362E+03  1.164E+00  6.655E+00  4.991E-02  1.582E+00
   1    6    8     3     6    8.8768E-01  5.5980E-02   8.3170E-01  0.000E+00  0.000E+00  0.000E+00  1.06158E+03  1.036E+00  6.145E+00  1.844E-02  1.518E+00
   1    5   10     4     1    1.0000E+01  9.0919E-02   9.9091E+00  0.000E+00  0.000E+00  0.000E+00  1.07836E+03  6.368E-01  1.000E+01  2.500E-02  1.212E+00
   1    5    9     4     2    9.9091E+00  1.8158E-01   9.7275E+00  0.000E+00  0.000E+00  0.000E+00  1.07154E+03  6.315E-01  1.000E+01  5.000E-02  1.211E+00
   1    6    8     4     3    9.7275E+00  1.2689E-01   9.6006E+00  0.000E+00  0.000E+00  0.000E+00  1.06381E+03  6.256E-01  1.000E+01  3.500E-02  1.209E+00
   1    6    8     5     1    1.0432E+01  2.2686E-01   1.0205E+01  0.000E+00  0.000E+00  0.000E+00  1.05868E+03  6.790E-01  1.542E+01  6.166E-02  1.226E+00
   1    7    7     5     2    1.0205E+01  2.7894E-01   9.9265E+00  0.000E+00  0.000E+00  0.000E+00  1.05417E+03  6.732E-01  1.519E+01  7.594E-02  1.224E+00
   1    8    7     5     3    9.9265E+00  1.9221E-01   9.7343E+00  0.000E+00  0.000E+00  0.000E+00  1.04992E+03  6.676E-01  1.497E+01  5.241E-02  1.223E+00
   1    8    6     5     4    9.7343E+00  1.3577E-01   9.5985E+00  0.000E+00  0.000E+00  0.000E+00  1.04691E+03  6.637E-01  1.482E+01  3.706E-02  1.221E+00
   1    9    6     6     1    9.5985E+00  2.2097E-01   9.3776E+00  0.000E+00  0.000E+00  0.000E+00  1.04341E+03  6.828E-01  1.200E+01  6.000E-02  1.228E+00
   1   10    7     6     2    9.3776E+00  2.2039E-01   9.1572E+00  0.000E+00  0.000E+00  0.000E+00  1.03885E+03  6.732E-01  1.200E+01  6.000E-02  1.224E+00
   1   11    7     6     3    9.1572E+00  2.1981E-01   8.9374E+00  0.000E+00  0.000E+00  0.000E+00  1.03430E+03  6.636E-01  1.200E+01  6.000E-02  1.221E+00
   1   12    7     6     4    8.9374E+00  2.1923E-01   8.7181E+00  0.000E+00  0.000E+00  0.000E+00  1.02974E+03  6.539E-01  1.200E+01  6.000E-02  1.218E+00
   1   13    7     6     5    8.7181E+00 -1.1597E-01   8.8341E+00  0.000E+00  0.000E+00  0.000E+00  1.02656E+03  6.516E-01  1.200E+01  2.400E-01 -1.611E-01
   1   14    9     7     1    1.5000E+02  1.3341E+00   1.4867E+02  0.000E+00  0.000E+00  0.000E+00  1.03987E+03  2.288E+00  5.529E+01  5.593E-01  7.951E-01
   1   13    8     7     2    1.4867E+02  1.8365E+00   1.4683E+02  0.000E+00  0.000E+00  0.000E+00  1.03478E+03  2.279E+00  5.526E+01  6.148E-01  9.958E-01
   1   13    7     7     3    1.4683E+02  1.4776E+00   1.4535E+02  0.000E+00  0.000E+00  0.000E+00  1.02969E+03  2.270E+00  5.522E+01  5.585E-01  8.820E-01
   1   13    6     8     1    1.5419E+02  8.2942E-01   1.5336E+02  0.000E+00  0.000E+00  0.000E+00  1.02472E+03  2.843E+00  4.123E+01  4.201E-01  6.581E-01
   1   13    5     8     2    1.5336E+02  1.0154E-01   1.5325E+02  0.000E+00  0.000E+00  0.000E+00  1.01846E+03  2.840E+00  4.118E+01  4.196E-01  8.066E-02
   1   13    4     8     3    1.5325E+02 -2.6776E+00   1.5593E+02  0.000E+00  0.000E+00  0.000E+00  1.01222E+03  2.849E+00  4.131E+01  4.210E+00 -2.120E-01
   1   13    3     8     4    1.5593E+02 -3.7556E+00   1.5969E+02  0.000E+00  0.000E+00  0.000E+00  1.00600E+03  2.871E+00  4.163E+01  4.242E+00 -2.951E-01
   1   13    2     8     5    1.5969E+02 -2.6053E+00   1.6229E+02  0.000E+00  0.000E+00  0.000E+00  9.99768E+02  2.893E+00  4.194E+01  4.274E+00 -2.032E-01
   1   13    1     8     6    1.6229E+02 -1.9842E+00   1.6428E+02  0.000E+00  0.000E+00  0.000E+00  9.94783E+02  2.908E+00  4.216E+01  2.578E+00 -2.565E-01
   1    8    6     9     1    1.2290E+01  0.0000E+00   1.2290E+01  0.000E+00  0.000E+00  0.000E+00  1.08131E+03  2.565E+00  4.000E+00  0.000E+00  1.855E+00
   1    8    5     9     2    1.2290E+01  0.0000E+00   1.2290E+01  0.000E+00  0.000E+00  0.000E+00  1.08081E+03  2.565E+00  4.000E+00  0.000E+00  1.855E+00



 UBDSV3 SAVING "           GW ET" ON UNIT  61 AT TIME STEP 1, STRESS PERIOD 2
 UBDSV3 SAVING "    UZF RECHARGE" ON UNIT  61 AT TIME STEP 1, STRESS PERIOD 2
 UBDSV3 SAVING " SURFACE LEAKAGE" ON UNIT  61 AT TIME STEP 1, STRESS PERIOD 2
 UBDSV3 SAVING "       HORT+DUNN" ON UNIT  61 AT TIME STEP 1, STRESS PERIOD 2
 UBDSV3 SAVING "  STORAGE CHANGE" ON UNIT  61 AT TIME STEP 1, STRESS PERIOD 2


UNSATURATED ZONE PACKAGE VOLUMETRIC BUDGET FOR  TIME STEP     1 STRESS PERIOD    2
  ------------------------------------------------------------------------------



     CUMULATIVE VOLUMES      L**3       RATES FOR THIS TIME STEP      L**3/T
     ------------------                 ------------------------

           IN:                                      IN:
           ---                                      ---
        INFILTRATION =      147521.4958          INFILTRATION =           0.8475

          OUT:                                     OUT:
          ----                                     ----
              UZF ET =       65735.6246                UZF ET =           0.7498
        UZF RECHARGE =       73224.0000          UZF RECHARGE =       0.0000E+00

            IN - OUT =        8561.8711              IN - OUT =       9.7664E-02

          STORAGE:                                 STORAGE:
          --------                                 --------
      STORAGE CHANGE =        8561.8722        STORAGE CHANGE =       9.7664E-02

 PERCENT DISCREPANCY IS DIFFERENCE BETWEEN IN-OUT MINUS CHANGE IN STORAGE
 DIVIDED BY THE AVERAGE OF IN AND OUT TIMES 100

 PERCENT DISCREPANCY =           0.00     PERCENT DISCREPANCY =           0.00






1
              HEAD IN LAYER 1 AT END OF TIME STEP 1 IN STRESS PERIOD 2
  ---------------------------------------------------------------------------

           1       2       3       4       5       6       7       8       9      10
 ...................................................................................
   1  1032.36 1031.32 6999.00 6999.00 6999.00 6999.00 6999.00 6999.00 6999.00 6999.00
   2  1031.40 1030.17 1029.57 6999.00 6999.00 1030.67 1030.82 1030.79 6999.00 6999.00
   3  6999.00 1029.27 1028.96 1028.73 1029.27 1029.90 1030.40 1030.36 6999.00 6999.00
   4  1028.56 1028.52 1028.34 1028.16 1028.23 1028.29 1028.78 1029.83 1029.56 6999.00
   5  1028.12 1027.75 1027.58 1027.51 1027.60 1027.81 1027.98 1028.47 1029.09 1029.62
   6  1027.56 1027.01 1026.83 1026.80 1026.92 1027.25 1027.55 1028.07 1028.52 1029.44
   7  1027.07 1026.07 1025.91 1025.95 1026.13 1026.54 1026.97 1027.44 1027.95 6999.00
   8  6999.00 1024.71 1024.74 1024.91 1025.14 1025.64 1026.08 1026.79 1027.35 6999.00
   9  6999.00 1022.69 1023.02 1023.48 1023.87 1024.53 1025.04 1025.79 1026.90 6999.00
  10  6999.00 1019.87 1020.64 1021.68 1022.47 1023.48 1024.39 1025.45 1027.06 1027.71
  11  6999.00 1015.35 1016.78 1019.32 1020.95 1022.68 1024.21 1025.99 1028.18 6999.00
  12  1001.91 1007.94 1012.08 1016.04 1019.32 1022.30 1024.79 1028.19 1031.18 6999.00
  13   995.55 1000.38 1006.88 1012.86 1018.22 1022.74 1027.04 1031.79 1034.63 6999.00
  14  6999.00 1005.79 1008.88 1013.53 1018.29 1022.70 1027.59 1033.07 1037.48 6999.00
  15  6999.00 6999.00 1012.51 1015.23 1018.70 1021.73 6999.00 6999.00 6999.00 6999.00
1
  VOLUMETRIC BUDGET FOR ENTIRE MODEL AT END OF TIME STEP    1, STRESS PERIOD   2
  ------------------------------------------------------------------------------

     CUMULATIVE VOLUMES      L**3       RATES FOR THIS TIME STEP      L**3/T
     ------------------                 ------------------------

           IN:                                      IN:
           ---                                      ---
             STORAGE     =       71115.3281               STORAGE     =           0.8112
       CONSTANT HEAD     =           0.0000         CONSTANT HEAD     =           0.0000
     HEAD DEP BOUNDS     =       49720.8359       HEAD DEP BOUNDS     =           0.2856
      STREAM LEAKAGE     =     1859906.7500        STREAM LEAKAGE     =          11.0709
        UZF RECHARGE     =       73223.9531          UZF RECHARGE     =           0.0000
               GW ET     =           0.0000                 GW ET     =           0.0000
     SURFACE LEAKAGE     =           0.0000       SURFACE LEAKAGE     =           0.0000

                TOTAL IN =     2053966.8750                  TOTAL IN =          12.1678

          OUT:                                     OUT:
          ----                                     ----
             STORAGE     =       65058.0781               STORAGE     =           0.7421
       CONSTANT HEAD     =           0.0000         CONSTANT HEAD     =           0.0000
     HEAD DEP BOUNDS     =       49956.8008       HEAD DEP BOUNDS     =           0.2870
      STREAM LEAKAGE     =     1938949.7500        STREAM LEAKAGE     =          11.1387
        UZF RECHARGE     =           0.0000          UZF RECHARGE     =           0.0000
               GW ET     =           0.0000                 GW ET     =           0.0000
     SURFACE LEAKAGE     =           0.0000       SURFACE LEAKAGE     =           0.0000

               TOTAL OUT =     2053964.6250                 TOTAL OUT =          12.1678

                IN - OUT =           2.2500                  IN - OUT =       2.2888E-05

     PERCENT DISCREPANCY =           0.00         PERCENT DISCREPANCY =           0.00






         TIME SUMMARY AT END OF TIME STEP    1 IN STRESS PERIOD    2
                    SECONDS     MINUTES      HOURS       DAYS        YEARS
                    -----------------------------------------------------------
   TIME STEP LENGTH  87667.      1461.1      24.352      1.0147     2.77799E-03
 STRESS PERIOD TIME  87667.      1461.1      24.352      1.0147     2.77799E-03
         TOTAL TIME 1.74067E+05  2901.1      48.352      2.0147     5.51584E-03
1
 
 SOLVING FOR HEAD 
                                                   Max.-Head-Change                         Max.-Flux-Residual
  Residual-Control   Outer-Iter.   Inner-Iter.     Column Row Layer    Maximum-Head-Change  Column Row Layer    Maximum-Flux-Residual          L2-NORM 
          0                 1           2             2    2     1       0.3236414808E-02       2    2    1         0.1692397957E+00      0.3089303713E+00
          0                 2           2             2    2     1      -0.3148153805E-03       2    2    1        -0.1692401097E-01      0.3089241633E-01
          0                 3           1             2    2     1       0.2143775561E-04       2    2    1         0.1184680990E-02      0.2162402786E-02

    ------------------------------------------------
       NWT REQUIRED            3 OUTER ITERATIONS 
       AND A TOTAL OF          5 INNER ITERATIONS.
    ------------------------------------------------

 NO OUTPUT CONTROL FOR STRESS PERIOD    2   TIME STEP    2
 
 SOLVING FOR HEAD 
                                                   Max.-Head-Change                         Max.-Flux-Residual
  Residual-Control   Outer-Iter.   Inner-Iter.     Column Row Layer    Maximum-Head-Change  Column Row Layer    Maximum-Flux-Residual          L2-NORM 
          0                 1           2             2    2     1       0.3211222228E-02       2    2    1         0.1679141516E+00      0.3053833665E+00
          0                 2           2             2    2     1      -0.3123648193E-03       2    2    1        -0.1679144590E-01      0.3053777950E-01
          0                 3           1             2    2     1       0.2127088202E-04       2    2    1         0.1175401434E-02      0.2137600878E-02

    ------------------------------------------------
       NWT REQUIRED            3 OUTER ITERATIONS 
       AND A TOTAL OF          5 INNER ITERATIONS.
    ------------------------------------------------

 NO OUTPUT CONTROL FOR STRESS PERIOD    2   TIME STEP    3
 
 SOLVING FOR HEAD 
                                                   Max.-Head-Change                         Max.-Flux-Residual
  Residual-Control   Outer-Iter.   Inner-Iter.     Column Row Layer    Maximum-Head-Change  Column Row Layer    Maximum-Flux-Residual          L2-NORM 
          0                 1           2             2    2     1       0.3186398691E-02       2    2    1         0.1666079426E+00      0.3019947884E+00
          0                 2           2             2    2     1      -0.3099501564E-03       2    2    1        -0.1666082436E-01      0.3019896271E-01
          0                 3           1             2    2     1       0.2110645232E-04       2    2    1         0.1166257926E-02      0.2113885842E-02

    ------------------------------------------------
       NWT REQUIRED            3 OUTER ITERATIONS 
       AND A TOTAL OF          5 INNER ITERATIONS.
    ------------------------------------------------

 NO OUTPUT CONTROL FOR STRESS PERIOD    2   TIME STEP    4
 
 SOLVING FOR HEAD 
                                                   Max.-Head-Change                         Max.-Flux-Residual
  Residual-Control   Outer-Iter.   Inner-Iter.     Column Row Layer    Maximum-Head-Change  Column Row Layer    Maximum-Flux-Residual          L2-NORM 
          0                 1           2             2    2     1       0.3161938111E-02       2    2    1         0.1653208680E+00      0.2987520070E+00
          0                 2           2             2    2     1      -0.3075707993E-03       2    2    1        -0.1653211627E-01      0.2987471657E-01
          0                 3           1             2    2     1       0.2094442674E-04       2    2    1         0.1157248359E-02      0.2091165525E-02

    ------------------------------------------------
       NWT REQUIRED            3 OUTER ITERATIONS 
       AND A TOTAL OF          5 INNER ITERATIONS.
    ------------------------------------------------

 NO OUTPUT CONTROL FOR STRESS PERIOD    2   TIME STEP    5
 
 SOLVING FOR HEAD 
                                                   Max.-Head-Change                         Max.-Flux-Residual
  Residual-Control   Outer-Iter.   Inner-Iter.     Column Row Layer    Maximum-Head-Change  Column Row Layer    Maximum-Flux-Residual          L2-NORM 
          0                 1           2             2    2     1       0.3137749008E-02       2    2    1         0.1640481218E+00      0.2956521377E+00
          0                 2           2             2    2     1      -0.3052178501E-03       2    2    1        -0.1640484104E-01      0.2956477781E-01
          0                 3           1             2    2     1       0.2078419988E-04       2    2    1         0.1148339094E-02      0.2069503609E-02

    ------------------------------------------------
       NWT REQUIRED            3 OUTER ITERATIONS 
       AND A TOTAL OF          5 INNER ITERATIONS.
    ------------------------------------------------

 NO OUTPUT CONTROL FOR STRESS PERIOD    2   TIME STEP    6
 
 SOLVING FOR HEAD 
                                                   Max.-Head-Change                         Max.-Flux-Residual
  Residual-Control   Outer-Iter.   Inner-Iter.     Column Row Layer    Maximum-Head-Change  Column Row Layer    Maximum-Flux-Residual          L2-NORM 
          0                 1           2             2    2     1       0.3113911300E-02       2    2    1         0.1627939009E+00      0.2926798423E+00
          0                 2           2             2    2     1      -0.3028990824E-03       2    2    1        -0.1627941836E-01      0.2926760973E-01
          0                 3           1             2    2     1       0.2062630047E-04       2    2    1         0.1139559515E-02      0.2048713831E-02

    ------------------------------------------------
       NWT REQUIRED            3 OUTER ITERATIONS 
       AND A TOTAL OF          5 INNER ITERATIONS.
    ------------------------------------------------

 NO OUTPUT CONTROL FOR STRESS PERIOD    2   TIME STEP    7
 
 SOLVING FOR HEAD 
                                                   Max.-Head-Change                         Max.-Flux-Residual
  Residual-Control   Outer-Iter.   Inner-Iter.     Column Row Layer    Maximum-Head-Change  Column Row Layer    Maximum-Flux-Residual          L2-NORM 
          0                 1           2             2    2     1       0.3090506691E-02       2    2    1         0.1615624723E+00      0.2898325335E+00
          0                 2           2             2    2     1      -0.3006224430E-03       2    2    1        -0.1615627492E-01      0.2898288523E-01
          0                 3           1             2    2     1       0.2047126930E-04       2    2    1         0.1130939458E-02      0.2028776816E-02

    ------------------------------------------------
       NWT REQUIRED            3 OUTER ITERATIONS 
       AND A TOTAL OF          5 INNER ITERATIONS.
    ------------------------------------------------

 NO OUTPUT CONTROL FOR STRESS PERIOD    2   TIME STEP    8
 
 SOLVING FOR HEAD 
                                                   Max.-Head-Change                         Max.-Flux-Residual
  Residual-Control   Outer-Iter.   Inner-Iter.     Column Row Layer    Maximum-Head-Change  Column Row Layer    Maximum-Flux-Residual          L2-NORM 
          0                 1           2             2    2     1       0.3067355785E-02       2    2    1         0.1603444357E+00      0.2870939164E+00
          0                 2           2             2    2     1      -0.2983704826E-03       2    2    1        -0.1603447070E-01      0.2870906879E-01
          0                 3           1             2    2     1       0.2031791969E-04       2    2    1         0.1122413172E-02      0.2009609807E-02

    ------------------------------------------------
       NWT REQUIRED            3 OUTER ITERATIONS 
       AND A TOTAL OF          5 INNER ITERATIONS.
    ------------------------------------------------

 NO OUTPUT CONTROL FOR STRESS PERIOD    2   TIME STEP    9
 
 SOLVING FOR HEAD 
                                                   Max.-Head-Change                         Max.-Flux-Residual
  Residual-Control   Outer-Iter.   Inner-Iter.     Column Row Layer    Maximum-Head-Change  Column Row Layer    Maximum-Flux-Residual          L2-NORM 
          0                 1           2             2    2     1       0.3044540351E-02       2    2    1         0.1591440853E+00      0.2844581510E+00
          0                 2           2             2    2     1      -0.2961511547E-03       2    2    1        -0.1591443511E-01      0.2844548067E-01
          0                 3           1             2    2     1       0.2016679174E-04       2    2    1         0.1114010678E-02      0.1991151061E-02

    ------------------------------------------------
       NWT REQUIRED            3 OUTER ITERATIONS 
       AND A TOTAL OF          5 INNER ITERATIONS.
    ------------------------------------------------

 NO OUTPUT CONTROL FOR STRESS PERIOD    2   TIME STEP   10
 
 SOLVING FOR HEAD 
                                                   Max.-Head-Change                         Max.-Flux-Residual
  Residual-Control   Outer-Iter.   Inner-Iter.     Column Row Layer    Maximum-Head-Change  Column Row Layer    Maximum-Flux-Residual          L2-NORM 
          0                 1           2             2    2     1       0.3021968226E-02       2    2    1         0.1579565966E+00      0.2819234457E+00
          0                 2           2             2    2     1      -0.2939554948E-03       2    2    1        -0.1579568572E-01      0.2819205736E-01
          0                 3           1             2    2     1       0.2001727553E-04       2    2    1         0.1105698239E-02      0.1973383719E-02

    ------------------------------------------------
       NWT REQUIRED            3 OUTER ITERATIONS 
       AND A TOTAL OF          5 INNER ITERATIONS.
    ------------------------------------------------

 NO OUTPUT CONTROL FOR STRESS PERIOD    2   TIME STEP   11
 
 SOLVING FOR HEAD 
                                                   Max.-Head-Change                         Max.-Flux-Residual
  Residual-Control   Outer-Iter.   Inner-Iter.     Column Row Layer    Maximum-Head-Change  Column Row Layer    Maximum-Flux-Residual          L2-NORM 
          0                 1           2             2    2     1       0.2999805752E-02       2    2    1         0.1567906646E+00      0.2794757652E+00
          0                 2           2             2    2     1      -0.2917996824E-03       2    2    1        -0.1567909198E-01      0.2794728061E-01
          0                 3           1             2    2     1       0.1987047278E-04       2    2    1         0.1097536675E-02      0.1956294883E-02

    ------------------------------------------------
       NWT REQUIRED            3 OUTER ITERATIONS 
       AND A TOTAL OF          5 INNER ITERATIONS.
    ------------------------------------------------

 NO OUTPUT CONTROL FOR STRESS PERIOD    2   TIME STEP   12
 
 SOLVING FOR HEAD 
                                                   Max.-Head-Change                         Max.-Flux-Residual
  Residual-Control   Outer-Iter.   Inner-Iter.     Column Row Layer    Maximum-Head-Change  Column Row Layer    Maximum-Flux-Residual          L2-NORM 
          0                 1           2             2    2     1       0.2977878968E-02       2    2    1         0.1556371538E+00      0.2771194516E+00
          0                 2           2             2    2     1      -0.2896667961E-03       2    2    1        -0.1556374039E-01      0.2771168556E-01
          0                 3           1             2    2     1       0.1972523089E-04       2    2    1         0.1089462048E-02      0.1939795596E-02

    ------------------------------------------------
       NWT REQUIRED            3 OUTER ITERATIONS 
       AND A TOTAL OF          5 INNER ITERATIONS.
    ------------------------------------------------

 NO OUTPUT CONTROL FOR STRESS PERIOD    2   TIME STEP   13
 
 SOLVING FOR HEAD 
                                                   Max.-Head-Change                         Max.-Flux-Residual
  Residual-Control   Outer-Iter.   Inner-Iter.     Column Row Layer    Maximum-Head-Change  Column Row Layer    Maximum-Flux-Residual          L2-NORM 
          0                 1           2             2    2     1       0.2956267316E-02       2    2    1         0.1545002727E+00      0.2748411265E+00
          0                 2           2             2    2     1      -0.2875645647E-03       2    2    1        -0.1545005180E-01      0.2748386951E-01
          0                 3           1             2    2     1       0.1958207717E-04       2    2    1         0.1081503858E-02      0.1923865743E-02

    ------------------------------------------------
       NWT REQUIRED            3 OUTER ITERATIONS 
       AND A TOTAL OF          5 INNER ITERATIONS.
    ------------------------------------------------

 NO OUTPUT CONTROL FOR STRESS PERIOD    2   TIME STEP   14
 
 SOLVING FOR HEAD 
                                                   Max.-Head-Change                         Max.-Flux-Residual
  Residual-Control   Outer-Iter.   Inner-Iter.     Column Row Layer    Maximum-Head-Change  Column Row Layer    Maximum-Flux-Residual          L2-NORM 
          0                 1           2             2    2     1       0.2934966007E-02       2    2    1         0.1533797308E+00      0.2726447450E+00
          0                 2           2             2    2     1      -0.2854925203E-03       2    2    1        -0.1533799711E-01      0.2726422390E-01
          0                 3           1             2    2     1       0.1944097824E-04       2    2    1         0.1073660017E-02      0.1908461235E-02

    ------------------------------------------------
       NWT REQUIRED            3 OUTER ITERATIONS 
       AND A TOTAL OF          5 INNER ITERATIONS.
    ------------------------------------------------

 NO OUTPUT CONTROL FOR STRESS PERIOD    2   TIME STEP   15
 
 SOLVING FOR HEAD 
                                                   Max.-Head-Change                         Max.-Flux-Residual
  Residual-Control   Outer-Iter.   Inner-Iter.     Column Row Layer    Maximum-Head-Change  Column Row Layer    Maximum-Flux-Residual          L2-NORM 
          0                 1           2             2    2     1       0.2913969975E-02       2    2    1         0.1522752800E+00      0.2705139051E+00
          0                 2           2             2    2     1      -0.2834501722E-03       2    2    1        -0.1522755157E-01      0.2705127049E-01
          0                 3           1             2    2     1       0.1930190240E-04       2    2    1         0.1065928844E-02      0.1893638632E-02

    ------------------------------------------------
       NWT REQUIRED            3 OUTER ITERATIONS 
       AND A TOTAL OF          5 INNER ITERATIONS.
    ------------------------------------------------

 NO OUTPUT CONTROL FOR STRESS PERIOD    2   TIME STEP   16
 
 SOLVING FOR HEAD 
                                                   Max.-Head-Change                         Max.-Flux-Residual
  Residual-Control   Outer-Iter.   Inner-Iter.     Column Row Layer    Maximum-Head-Change  Column Row Layer    Maximum-Flux-Residual          L2-NORM 
          0                 1           2             2    2     1       0.2893274238E-02       2    2    1         0.1511866574E+00      0.2684518196E+00
          0                 2           2             2    2     1      -0.2814370344E-03       2    2    1        -0.1511868885E-01      0.2684496388E-01
          0                 3           1             2    2     1       0.1916481509E-04       2    2    1         0.1058308449E-02      0.1879122604E-02

    ------------------------------------------------
       NWT REQUIRED            3 OUTER ITERATIONS 
       AND A TOTAL OF          5 INNER ITERATIONS.
    ------------------------------------------------

 NO OUTPUT CONTROL FOR STRESS PERIOD    2   TIME STEP   17
 
 SOLVING FOR HEAD 
                                                   Max.-Head-Change                         Max.-Flux-Residual
  Residual-Control   Outer-Iter.   Inner-Iter.     Column Row Layer    Maximum-Head-Change  Column Row Layer    Maximum-Flux-Residual          L2-NORM 
          0                 1           2             2    2     1       0.2872787190E-02       2    2    1         0.1501090720E+00      0.2664553833E+00
          0                 2           2             2    2     1      -0.2794441967E-03       2    2    1        -0.1501092988E-01      0.2664535302E-01
          0                 3           1             2    2     1       0.1902911019E-04       2    2    1         0.1050765314E-02      0.1865148602E-02

    ------------------------------------------------
       NWT REQUIRED            3 OUTER ITERATIONS 
       AND A TOTAL OF          5 INNER ITERATIONS.
    ------------------------------------------------

 NO OUTPUT CONTROL FOR STRESS PERIOD    2   TIME STEP   18
 
 SOLVING FOR HEAD 
                                                   Max.-Head-Change                         Max.-Flux-Residual
  Residual-Control   Outer-Iter.   Inner-Iter.     Column Row Layer    Maximum-Head-Change  Column Row Layer    Maximum-Flux-Residual          L2-NORM 
          0                 1           2             2    2     1       0.2852678541E-02       2    2    1         0.1490513725E+00      0.2645268449E+00
          0                 2           2             2    2     1      -0.2774881664E-03       2    2    1        -0.1490515946E-01      0.2645247963E-01
          0                 3           1             2    2     1       0.1889591213E-04       2    2    1         0.1043361396E-02      0.1851649162E-02

    ------------------------------------------------
       NWT REQUIRED            3 OUTER ITERATIONS 
       AND A TOTAL OF          5 INNER ITERATIONS.
    ------------------------------------------------

 NO OUTPUT CONTROL FOR STRESS PERIOD    2   TIME STEP   19
 
 SOLVING FOR HEAD 
                                                   Max.-Head-Change                         Max.-Flux-Residual
  Residual-Control   Outer-Iter.   Inner-Iter.     Column Row Layer    Maximum-Head-Change  Column Row Layer    Maximum-Flux-Residual          L2-NORM 
          0                 1           2             2    2     1       0.2832769399E-02       2    2    1         0.1480042269E+00      0.2626495658E+00
          0                 2           2             2    2     1      -0.2755515437E-03       2    2    1        -0.1480044447E-01      0.2626477027E-01
          0                 3           1             2    2     1       0.1876403541E-04       2    2    1         0.1036031362E-02      0.1838528493E-02

    ------------------------------------------------
       NWT REQUIRED            3 OUTER ITERATIONS 
       AND A TOTAL OF          5 INNER ITERATIONS.
    ------------------------------------------------

 NO OUTPUT CONTROL FOR STRESS PERIOD    2   TIME STEP   20
 
 SOLVING FOR HEAD 
                                                   Max.-Head-Change                         Max.-Flux-Residual
  Residual-Control   Outer-Iter.   Inner-Iter.     Column Row Layer    Maximum-Head-Change  Column Row Layer    Maximum-Flux-Residual          L2-NORM 
          0                 1           2             2    2     1       0.2813142548E-02       2    2    1         0.1469719583E+00      0.2608297913E+00
          0                 2           2             2    2     1      -0.2736423800E-03       2    2    1        -0.1469721721E-01      0.2608280294E-01
          0                 3           1             2    2     1       0.1863402842E-04       2    2    1         0.1028805450E-02      0.1825781908E-02

    ------------------------------------------------
       NWT REQUIRED            3 OUTER ITERATIONS 
       AND A TOTAL OF          5 INNER ITERATIONS.
    ------------------------------------------------

 NO OUTPUT CONTROL FOR STRESS PERIOD    2   TIME STEP   21
 
 SOLVING FOR HEAD 
                                                   Max.-Head-Change                         Max.-Flux-Residual
  Residual-Control   Outer-Iter.   Inner-Iter.     Column Row Layer    Maximum-Head-Change  Column Row Layer    Maximum-Flux-Residual          L2-NORM 
          0                 1           2             2    2     1       0.2793793765E-02       2    2    1         0.1459543263E+00      0.2590603644E+00
          0                 2           2             2    2     1      -0.2717602647E-03       2    2    1        -0.1459545361E-01      0.2590591959E-01
          0                 3           1             2    2     1       0.1850586321E-04       2    2    1         0.1021681972E-02      0.1813396884E-02

    ------------------------------------------------
       NWT REQUIRED            3 OUTER ITERATIONS 
       AND A TOTAL OF          5 INNER ITERATIONS.
    ------------------------------------------------

 NO OUTPUT CONTROL FOR STRESS PERIOD    2   TIME STEP   22
 
 SOLVING FOR HEAD 
                                                   Max.-Head-Change                         Max.-Flux-Residual
  Residual-Control   Outer-Iter.   Inner-Iter.     Column Row Layer    Maximum-Head-Change  Column Row Layer    Maximum-Flux-Residual          L2-NORM 
          0                 1           2             2    2     1       0.2774718541E-02       2    2    1         0.1449511118E+00      0.2573423558E+00
          0                 2           2             2    2     1      -0.2699047595E-03       2    2    1        -0.1449513176E-01      0.2573407780E-01
          0                 3           1             2    2     1       0.1837951022E-04       2    2    1         0.1014659453E-02      0.1801377084E-02

    ------------------------------------------------
       NWT REQUIRED            3 OUTER ITERATIONS 
       AND A TOTAL OF          5 INNER ITERATIONS.
    ------------------------------------------------

 NO OUTPUT CONTROL FOR STRESS PERIOD    2   TIME STEP   23
 
 SOLVING FOR HEAD 
                                                   Max.-Head-Change                         Max.-Flux-Residual
  Residual-Control   Outer-Iter.   Inner-Iter.     Column Row Layer    Maximum-Head-Change  Column Row Layer    Maximum-Flux-Residual          L2-NORM 
          0                 1           2             2    2     1       0.2755917166E-02       2    2    1         0.1439623265E+00      0.2556744765E+00
          0                 2           2             2    2     1      -0.2680758931E-03       2    2    1        -0.1439625285E-01      0.2556721886E-01
          0                 3           1             2    2     1       0.1825497156E-04       2    2    1         0.1007737948E-02      0.1789949330E-02

    ------------------------------------------------
       NWT REQUIRED            3 OUTER ITERATIONS 
       AND A TOTAL OF          5 INNER ITERATIONS.
    ------------------------------------------------

 NO OUTPUT CONTROL FOR STRESS PERIOD    2   TIME STEP   24
 
 SOLVING FOR HEAD 
                                                   Max.-Head-Change                         Max.-Flux-Residual
  Residual-Control   Outer-Iter.   Inner-Iter.     Column Row Layer    Maximum-Head-Change  Column Row Layer    Maximum-Flux-Residual          L2-NORM 
          0                 1           2             2    2     1       0.2737289513E-02       2    2    1         0.1429827156E+00      0.2540528256E+00
          0                 2           2             2    2     1      -0.2662639246E-03       2    2    1        -0.1429829139E-01      0.2540513704E-01
          0                 3           1             2    2     1       0.1813158337E-04       2    2    1         0.1000880647E-02      0.1778350103E-02

    ------------------------------------------------
       NWT REQUIRED            3 OUTER ITERATIONS 
       AND A TOTAL OF          5 INNER ITERATIONS.
    ------------------------------------------------

 NO OUTPUT CONTROL FOR STRESS PERIOD    2   TIME STEP   25
 
 SOLVING FOR HEAD 
                                                   Max.-Head-Change                         Max.-Flux-Residual
  Residual-Control   Outer-Iter.   Inner-Iter.     Column Row Layer    Maximum-Head-Change  Column Row Layer    Maximum-Flux-Residual          L2-NORM 
          0                 1           2             2    2     1       0.2718923047E-02       2    2    1         0.1420168909E+00      0.2524692488E+00
          0                 2           2             2    2     1      -0.2644773624E-03       2    2    1        -0.1420170854E-01      0.2524681522E-01
          0                 3           1             2    2     1       0.1800992479E-04       2    2    1         0.9941198369E-03      0.1767240439E-02

    ------------------------------------------------
       NWT REQUIRED            3 OUTER ITERATIONS 
       AND A TOTAL OF          5 INNER ITERATIONS.
    ------------------------------------------------

 NO OUTPUT CONTROL FOR STRESS PERIOD    2   TIME STEP   26
 
 SOLVING FOR HEAD 
                                                   Max.-Head-Change                         Max.-Flux-Residual
  Residual-Control   Outer-Iter.   Inner-Iter.     Column Row Layer    Maximum-Head-Change  Column Row Layer    Maximum-Flux-Residual          L2-NORM 
          0                 1           2             2    2     1       0.2700900696E-02       2    2    1         0.1410691420E+00      0.2509367191E+00
          0                 2           2             2    2     1      -0.2627242740E-03       2    2    1        -0.1410693330E-01      0.2509351478E-01
          0                 3           1             2    2     1       0.1789054631E-04       2    2    1         0.9874855758E-03      0.1756523677E-02

    ------------------------------------------------
       NWT REQUIRED            3 OUTER ITERATIONS 
       AND A TOTAL OF          5 INNER ITERATIONS.
    ------------------------------------------------

 NO OUTPUT CONTROL FOR STRESS PERIOD    2   TIME STEP   27
 
 SOLVING FOR HEAD 
                                                   Max.-Head-Change                         Max.-Flux-Residual
  Residual-Control   Outer-Iter.   Inner-Iter.     Column Row Layer    Maximum-Head-Change  Column Row Layer    Maximum-Flux-Residual          L2-NORM 
          0                 1           2             2    2     1       0.2683044145E-02       2    2    1         0.1401301680E+00      0.2494356502E+00
          0                 2           2             2    2     1      -0.2609873128E-03       2    2    1        -0.1401303552E-01      0.2494342777E-01
          0                 3           1             2    2     1       0.1777226553E-04       2    2    1         0.9809127214E-03      0.1746027068E-02

    ------------------------------------------------
       NWT REQUIRED            3 OUTER ITERATIONS 
       AND A TOTAL OF          5 INNER ITERATIONS.
    ------------------------------------------------

 NO OUTPUT CONTROL FOR STRESS PERIOD    2   TIME STEP   28
 
 SOLVING FOR HEAD 
                                                   Max.-Head-Change                         Max.-Flux-Residual
  Residual-Control   Outer-Iter.   Inner-Iter.     Column Row Layer    Maximum-Head-Change  Column Row Layer    Maximum-Flux-Residual          L2-NORM 
          0                 1           2             2    2     1       0.2665436732E-02       2    2    1         0.1392043241E+00      0.2479778657E+00
          0                 2           2             2    2     1      -0.2592745868E-03       2    2    1        -0.1392045081E-01      0.2479766029E-01
          0                 3           1             2    2     1       0.1765563531E-04       2    2    1         0.9744318045E-03      0.1735822661E-02

    ------------------------------------------------
       NWT REQUIRED            3 OUTER ITERATIONS 
       AND A TOTAL OF          5 INNER ITERATIONS.
    ------------------------------------------------

 NO OUTPUT CONTROL FOR STRESS PERIOD    2   TIME STEP   29
 
 SOLVING FOR HEAD 
                                                   Max.-Head-Change                         Max.-Flux-Residual
  Residual-Control   Outer-Iter.   Inner-Iter.     Column Row Layer    Maximum-Head-Change  Column Row Layer    Maximum-Flux-Residual          L2-NORM 
          0                 1           2             2    2     1       0.2648074471E-02       2    2    1         0.1382913978E+00      0.2465569575E+00
          0                 2           2             2    2     1      -0.2575857075E-03       2    2    1        -0.1382915784E-01      0.2465557198E-01
          0                 3           1             2    2     1       0.1754062938E-04       2    2    1         0.9680413116E-03      0.1725880119E-02

    ------------------------------------------------
       NWT REQUIRED            3 OUTER ITERATIONS 
       AND A TOTAL OF          5 INNER ITERATIONS.
    ------------------------------------------------

 NO OUTPUT CONTROL FOR STRESS PERIOD    2   TIME STEP   30



 STREAM LISTING     PERIOD      2   STEP       30

 LAYER ROW COL. STREAM  RCH.  FLOW INTO     FLOW TO   FLOW OUT OF   OVRLND.     DIRECT     STREAM       STREAM     STREAM     STREAM   STREAMBED  STREAMBED
                SEG.NO.  NO.  STRM. RCH.    AQUIFER    STRM. RCH.    RUNOFF     PRECIP       ET          HEAD       DEPTH      WIDTH   CONDCTNC.   GRADIENT

   1    1    1     1     1    1.6500E+01  1.9759E-01   1.6302E+01  0.000E+00  0.000E+00  0.000E+00  1.09409E+03  1.039E+00  1.087E+01  4.893E-02  1.346E+00
   1    2    2     1     2    1.6302E+01  3.0466E-01   1.5998E+01  0.000E+00  0.000E+00  0.000E+00  1.08909E+03  1.034E+00  1.079E+01  7.552E-02  1.345E+00
   1    3    3     1     3    1.5998E+01  2.5853E-01   1.5739E+01  0.000E+00  0.000E+00  0.000E+00  1.08345E+03  1.029E+00  1.070E+01  6.417E-02  1.343E+00
   1    3    4     1     4    1.5739E+01  2.3700E-01   1.5502E+01  0.000E+00  0.000E+00  0.000E+00  1.07843E+03  1.024E+00  1.061E+01  5.889E-02  1.341E+00
   1    4    5     2     1    1.3502E+01  2.9865E-01   1.3204E+01  0.000E+00  0.000E+00  0.000E+00  1.07276E+03  8.289E-01  1.200E+01  7.800E-02  1.276E+00
   1    5    6     2     2    1.3204E+01  2.2914E-01   1.2974E+01  0.000E+00  0.000E+00  0.000E+00  1.06733E+03  8.190E-01  1.200E+01  6.000E-02  1.273E+00
   1    6    6     2     3    1.2974E+01  2.2862E-01   1.2746E+01  0.000E+00  0.000E+00  0.000E+00  1.06260E+03  8.104E-01  1.200E+01  6.000E-02  1.270E+00
   1    7    6     2     4    1.2746E+01  2.2810E-01   1.2518E+01  0.000E+00  0.000E+00  0.000E+00  1.05788E+03  8.017E-01  1.200E+01  6.000E-02  1.267E+00
   1    8    6     2     5    1.2518E+01  2.2758E-01   1.2290E+01  0.000E+00  0.000E+00  0.000E+00  1.05315E+03  7.930E-01  1.200E+01  6.000E-02  1.264E+00
   1    3    5     3     1    2.0000E+00  2.8252E-01   1.7175E+00  0.000E+00  0.000E+00  0.000E+00  1.07555E+03  1.909E+00  9.636E+00  7.227E-02  1.955E+00
   1    3    6     3     2    1.7175E+00  2.4905E-01   1.4684E+00  0.000E+00  0.000E+00  0.000E+00  1.07264E+03  1.727E+00  8.909E+00  6.682E-02  1.864E+00
   1    3    7     3     3    1.4684E+00  1.9718E-01   1.2712E+00  0.000E+00  0.000E+00  0.000E+00  1.06987E+03  1.555E+00  8.218E+00  5.547E-02  1.777E+00
   1    4    8     3     4    1.2712E+00  2.2567E-01   1.0456E+00  0.000E+00  0.000E+00  0.000E+00  1.06682E+03  1.364E+00  7.455E+00  6.709E-02  1.682E+00
   1    5    8     3     5    1.0456E+00  1.5790E-01   8.8768E-01  0.000E+00  0.000E+00  0.000E+00  1.06362E+03  1.164E+00  6.655E+00  4.991E-02  1.582E+00
   1    6    8     3     6    8.8768E-01  5.5980E-02   8.3170E-01  0.000E+00  0.000E+00  0.000E+00  1.06158E+03  1.036E+00  6.145E+00  1.844E-02  1.518E+00
   1    5   10     4     1    1.0000E+01  9.0919E-02   9.9091E+00  0.000E+00  0.000E+00  0.000E+00  1.07836E+03  6.368E-01  1.000E+01  2.500E-02  1.212E+00
   1    5    9     4     2    9.9091E+00  1.8158E-01   9.7275E+00  0.000E+00  0.000E+00  0.000E+00  1.07154E+03  6.315E-01  1.000E+01  5.000E-02  1.211E+00
   1    6    8     4     3    9.7275E+00  1.2689E-01   9.6006E+00  0.000E+00  0.000E+00  0.000E+00  1.06381E+03  6.256E-01  1.000E+01  3.500E-02  1.209E+00
   1    6    8     5     1    1.0432E+01  2.2686E-01   1.0205E+01  0.000E+00  0.000E+00  0.000E+00  1.05868E+03  6.790E-01  1.542E+01  6.166E-02  1.226E+00
   1    7    7     5     2    1.0205E+01  2.7894E-01   9.9265E+00  0.000E+00  0.000E+00  0.000E+00  1.05417E+03  6.732E-01  1.519E+01  7.594E-02  1.224E+00
   1    8    7     5     3    9.9265E+00  1.9221E-01   9.7343E+00  0.000E+00  0.000E+00  0.000E+00  1.04992E+03  6.676E-01  1.497E+01  5.241E-02  1.223E+00
   1    8    6     5     4    9.7343E+00  1.3577E-01   9.5985E+00  0.000E+00  0.000E+00  0.000E+00  1.04691E+03  6.637E-01  1.482E+01  3.706E-02  1.221E+00
   1    9    6     6     1    9.5985E+00  2.2097E-01   9.3776E+00  0.000E+00  0.000E+00  0.000E+00  1.04341E+03  6.828E-01  1.200E+01  6.000E-02  1.228E+00
   1   10    7     6     2    9.3776E+00  2.2039E-01   9.1572E+00  0.000E+00  0.000E+00  0.000E+00  1.03885E+03  6.732E-01  1.200E+01  6.000E-02  1.224E+00
   1   11    7     6     3    9.1572E+00  2.1981E-01   8.9374E+00  0.000E+00  0.000E+00  0.000E+00  1.03430E+03  6.636E-01  1.200E+01  6.000E-02  1.221E+00
   1   12    7     6     4    8.9374E+00  2.1923E-01   8.7181E+00  0.000E+00  0.000E+00  0.000E+00  1.02974E+03  6.539E-01  1.200E+01  6.000E-02  1.218E+00
   1   13    7     6     5    8.7181E+00 -1.1546E-01   8.8336E+00  0.000E+00  0.000E+00  0.000E+00  1.02656E+03  6.515E-01  1.200E+01  2.400E-01 -1.604E-01
   1   14    9     7     1    1.5000E+02  1.3348E+00   1.4867E+02  0.000E+00  0.000E+00  0.000E+00  1.03987E+03  2.288E+00  5.529E+01  5.593E-01  7.955E-01
   1   13    8     7     2    1.4867E+02  1.8373E+00   1.4683E+02  0.000E+00  0.000E+00  0.000E+00  1.03478E+03  2.279E+00  5.526E+01  6.148E-01  9.962E-01
   1   13    7     7     3    1.4683E+02  1.4788E+00   1.4535E+02  0.000E+00  0.000E+00  0.000E+00  1.02969E+03  2.270E+00  5.522E+01  5.585E-01  8.827E-01
   1   13    6     8     1    1.5418E+02  8.3046E-01   1.5335E+02  0.000E+00  0.000E+00  0.000E+00  1.02472E+03  2.843E+00  4.123E+01  4.201E-01  6.589E-01
   1   13    5     8     2    1.5335E+02  1.0246E-01   1.5325E+02  0.000E+00  0.000E+00  0.000E+00  1.01846E+03  2.840E+00  4.118E+01  4.196E-01  8.139E-02
   1   13    4     8     3    1.5325E+02 -2.6725E+00   1.5592E+02  0.000E+00  0.000E+00  0.000E+00  1.01222E+03  2.849E+00  4.131E+01  4.209E+00 -2.116E-01
   1   13    3     8     4    1.5592E+02 -3.7510E+00   1.5967E+02  0.000E+00  0.000E+00  0.000E+00  1.00600E+03  2.871E+00  4.163E+01  4.242E+00 -2.948E-01
   1   13    2     8     5    1.5967E+02 -2.6030E+00   1.6228E+02  0.000E+00  0.000E+00  0.000E+00  9.99767E+02  2.892E+00  4.194E+01  4.274E+00 -2.030E-01
   1   13    1     8     6    1.6228E+02 -1.9825E+00   1.6426E+02  0.000E+00  0.000E+00  0.000E+00  9.94783E+02  2.908E+00  4.216E+01  2.578E+00 -2.563E-01
   1    8    6     9     1    1.2290E+01  0.0000E+00   1.2290E+01  0.000E+00  0.000E+00  0.000E+00  1.08131E+03  2.565E+00  4.000E+00  0.000E+00  1.855E+00
   1    8    5     9     2    1.2290E+01  0.0000E+00   1.2290E+01  0.000E+00  0.000E+00  0.000E+00  1.08081E+03  2.565E+00  4.000E+00  0.000E+00  1.855E+00





UNSATURATED ZONE PACKAGE VOLUMETRIC BUDGET FOR  TIME STEP    30 STRESS PERIOD    2
  ------------------------------------------------------------------------------



     CUMULATIVE VOLUMES      L**3       RATES FOR THIS TIME STEP      L**3/T
     ------------------                 ------------------------

           IN:                                      IN:
           ---                                      ---
        INFILTRATION =     2302148.8727          INFILTRATION =           0.8475

          OUT:                                     OUT:
          ----                                     ----
              UZF ET =     1972485.7128                UZF ET =           0.7500
        UZF RECHARGE =       73224.0000          UZF RECHARGE =       0.0000E+00

            IN - OUT =      256439.1600              IN - OUT =       9.7500E-02

          STORAGE:                                 STORAGE:
          --------                                 --------
      STORAGE CHANGE =      256439.1819        STORAGE CHANGE =       9.7500E-02

 PERCENT DISCREPANCY IS DIFFERENCE BETWEEN IN-OUT MINUS CHANGE IN STORAGE
 DIVIDED BY THE AVERAGE OF IN AND OUT TIMES 100

 PERCENT DISCREPANCY =          -0.00     PERCENT DISCREPANCY =           0.00






1
  VOLUMETRIC BUDGET FOR ENTIRE MODEL AT END OF TIME STEP   30, STRESS PERIOD   2
  ------------------------------------------------------------------------------

     CUMULATIVE VOLUMES      L**3       RATES FOR THIS TIME STEP      L**3/T
     ------------------                 ------------------------

           IN:                                      IN:
           ---                                      ---
             STORAGE     =     1927041.7500               STORAGE     =           0.6867
       CONSTANT HEAD     =           0.0000         CONSTANT HEAD     =           0.0000
     HEAD DEP BOUNDS     =      775982.2500       HEAD DEP BOUNDS     =           0.2857
      STREAM LEAKAGE     =    30012160.0000        STREAM LEAKAGE     =          11.0756
        UZF RECHARGE     =       73223.9531          UZF RECHARGE     =           0.0000
               GW ET     =           0.0000                 GW ET     =           0.0000
     SURFACE LEAKAGE     =           0.0000       SURFACE LEAKAGE     =           0.0000

                TOTAL IN =    32788408.0000                  TOTAL IN =          12.0480

          OUT:                                     OUT:
          ----                                     ----
             STORAGE     =     1773953.5000               STORAGE     =           0.6365
       CONSTANT HEAD     =           0.0000         CONSTANT HEAD     =           0.0000
     HEAD DEP BOUNDS     =      779557.0000       HEAD DEP BOUNDS     =           0.2870
      STREAM LEAKAGE     =    30234848.0000        STREAM LEAKAGE     =          11.1244
        UZF RECHARGE     =           0.0000          UZF RECHARGE     =           0.0000
               GW ET     =           0.0000                 GW ET     =           0.0000
     SURFACE LEAKAGE     =           0.0000       SURFACE LEAKAGE     =           0.0000

               TOTAL OUT =    32788358.0000                 TOTAL OUT =          12.0479

                IN - OUT =          50.0000                  IN - OUT =       1.9073E-05

     PERCENT DISCREPANCY =           0.00         PERCENT DISCREPANCY =           0.00






         TIME SUMMARY AT END OF TIME STEP   30 IN STRESS PERIOD    2
                    SECONDS     MINUTES      HOURS       DAYS        YEARS
                    -----------------------------------------------------------
   TIME STEP LENGTH  87667.      1461.1      24.352      1.0147     2.77799E-03
 STRESS PERIOD TIME 2.63000E+06  43833.      730.56      30.440     8.33397E-02
         TOTAL TIME 2.71640E+06  45273.      754.56      31.440     8.60775E-02
1
1
                            STRESS PERIOD NO.    3, LENGTH =   2630000.    
                            -----------------------------------------------

                              NUMBER OF TIME STEPS =    30

                               MULTIPLIER FOR DELT =     1.000

                            INITIAL TIME STEP SIZE =   87666.66    

 REUSING NON-PARAMETER GHB CELLS FROM LAST STRESS PERIOD

      2 GHB CELLS

 REUSING STREAM SEGMENT DATA FROM LAST STRESS PERIOD



            AREAL INFILTRATION RATE
 READING ON UNIT   19 WITH FORMAT: (FREE)              

            1           2           3           4           5           6           7           8           9          10
 ........................................................................................................................
   1   1.0000E-10  2.0000E-10   0.000       0.000       0.000       0.000       0.000       0.000       0.000       0.000    
   2   2.0000E-10  1.0000E-10  2.0000E-10   0.000       0.000      8.0000E-10  8.0000E-10  5.0000E-10   0.000       0.000    
   3    0.000      5.0000E-10  1.0000E-10  1.0000E-10  8.0000E-10  8.0000E-10  5.0000E-10  5.0000E-10   0.000       0.000    
   4   8.0000E-10  5.0000E-10  1.0000E-10  1.0000E-10  1.0000E-10  1.0000E-10  1.0000E-10  1.0000E-10  2.0000E-10   0.000    
   5   8.0000E-10  5.0000E-10  1.0000E-10  1.0000E-10  1.0000E-10  1.0000E-10  1.0000E-10  1.0000E-10  1.0000E-10  1.0000E-10
   6   8.0000E-10  5.0000E-10  5.0000E-10  2.0000E-10  2.0000E-10  1.0000E-10  1.0000E-10  1.0000E-10  1.0000E-10  5.0000E-10
   7   8.0000E-10  5.0000E-10  5.0000E-10  2.0000E-10  2.0000E-10  1.0000E-10  1.0000E-10  2.0000E-10  2.0000E-10   0.000    
   8    0.000      5.0000E-10  5.0000E-10  2.0000E-10  2.0000E-10  1.0000E-10  1.0000E-10  2.0000E-10  5.0000E-10   0.000    
   9    0.000      5.0000E-10  5.0000E-10  2.0000E-10  2.0000E-10  1.0000E-10  1.0000E-10  2.0000E-10  5.0000E-10   0.000    
  10    0.000      5.0000E-10  5.0000E-10  2.0000E-10  2.0000E-10  1.0000E-10  1.0000E-10  2.0000E-10  5.0000E-10  8.0000E-10
  11    0.000      1.0000E-10  1.0000E-10  1.0000E-10  1.0000E-10  1.0000E-10  1.0000E-10  2.0000E-10  5.0000E-10   0.000    
  12   1.0000E-10  1.0000E-10  1.0000E-10  1.0000E-10  1.0000E-10  1.0000E-10  1.0000E-10  1.0000E-10  2.0000E-10   0.000    
  13   1.0000E-10  1.0000E-10  2.0000E-10  2.0000E-10  2.0000E-10  2.0000E-10  2.0000E-10  1.0000E-10  1.0000E-10   0.000    
  14    0.000      2.0000E-10  5.0000E-10  5.0000E-10  5.0000E-10  5.0000E-10  5.0000E-10  2.0000E-10  1.0000E-10   0.000    
  15    0.000       0.000      8.0000E-10  8.0000E-10  8.0000E-10  8.0000E-10   0.000       0.000       0.000       0.000    

                  ET RATE =  5.000000E-10

 USING ET EXTINCTION DEPTH FROM PREVIOUS STRESS PERIOD. CURRENT PERIOD IS:       3

 USING EXTINCTION WATER CONTENT FROM PREVIOUS STRESS PERIOD. CURRENT PERIOD IS:       3

 USING AIR ENTRY PRESSURE FROM PREVIOUS STRESS PERIOD. CURRENT PERIOD IS:       3

 USING ROOT PRESSURE HEAD FROM PREVIOUS STRESS PERIOD. CURRENT PERIOD IS:       3

 USING ROOT ACTIVITY FROM PREVIOUS STRESS PERIOD. CURRENT PERIOD IS:       3
 
 SOLVING FOR HEAD 
                                                   Max.-Head-Change                         Max.-Flux-Residual
  Residual-Control   Outer-Iter.   Inner-Iter.     Column Row Layer    Maximum-Head-Change  Column Row Layer    Maximum-Flux-Residual          L2-NORM 
          0                 1           2             2    2     1       0.3921674231E-02       2    2    1         0.2048622149E+00      0.3549538667E+00
          0                 2           2             2    2     1      -0.3814725855E-03       2    2    1        -0.2048626279E-01      0.3549533561E-01
          0                 3           1             2    2     1       0.2597686306E-04       2    2    1         0.1434038645E-02      0.2484671592E-02

    ------------------------------------------------
       NWT REQUIRED            3 OUTER ITERATIONS 
       AND A TOTAL OF          5 INNER ITERATIONS.
    ------------------------------------------------

 NO OUTPUT CONTROL FOR STRESS PERIOD    3   TIME STEP    1
 
 SOLVING FOR HEAD 
                                                   Max.-Head-Change                         Max.-Flux-Residual
  Residual-Control   Outer-Iter.   Inner-Iter.     Column Row Layer    Maximum-Head-Change  Column Row Layer    Maximum-Flux-Residual          L2-NORM 
          0                 1           2             2    2     1       0.4862953778E-02       2    2    1         0.2540581093E+00      0.4382688987E+00
          0                 2           2             2    2     1      -0.4730337670E-03       2    2    1        -0.2540587535E-01      0.4382687898E-01
          0                 3           1             2    2     1       0.3221183675E-04       2    2    1         0.1778411446E-02      0.3067876017E-02

    ------------------------------------------------
       NWT REQUIRED            3 OUTER ITERATIONS 
       AND A TOTAL OF          5 INNER ITERATIONS.
    ------------------------------------------------

 NO OUTPUT CONTROL FOR STRESS PERIOD    3   TIME STEP    2
 
 SOLVING FOR HEAD 
                                                   Max.-Head-Change                         Max.-Flux-Residual
  Residual-Control   Outer-Iter.   Inner-Iter.     Column Row Layer    Maximum-Head-Change  Column Row Layer    Maximum-Flux-Residual          L2-NORM 
          0                 1           2             2    2     1       0.4829592616E-02       2    2    1         0.2523033690E+00      0.4348061961E+00
          0                 2           2             2    2     1      -0.4697886170E-03       2    2    1        -0.2523040010E-01      0.4348060445E-01
          0                 3           1             2    2     1       0.3199085373E-04       2    2    1         0.1766128162E-02      0.3043631342E-02

    ------------------------------------------------
       NWT REQUIRED            3 OUTER ITERATIONS 
       AND A TOTAL OF          5 INNER ITERATIONS.
    ------------------------------------------------

 NO OUTPUT CONTROL FOR STRESS PERIOD    3   TIME STEP    3
 
 SOLVING FOR HEAD 
                                                   Max.-Head-Change                         Max.-Flux-Residual
  Residual-Control   Outer-Iter.   Inner-Iter.     Column Row Layer    Maximum-Head-Change  Column Row Layer    Maximum-Flux-Residual          L2-NORM 
          0                 1           2             2    2     1       0.4796706220E-02       2    2    1         0.2505736298E+00      0.4314687355E+00
          0                 2           2             2    2     1      -0.4665896490E-03       2    2    1        -0.2505742495E-01      0.4314686309E-01
          0                 3           1             2    2     1       0.3177301610E-04       2    2    1         0.1754019921E-02      0.3020281914E-02

    ------------------------------------------------
       NWT REQUIRED            3 OUTER ITERATIONS 
       AND A TOTAL OF          5 INNER ITERATIONS.
    ------------------------------------------------

 NO OUTPUT CONTROL FOR STRESS PERIOD    3   TIME STEP    4
 
 SOLVING FOR HEAD 
                                                   Max.-Head-Change                         Max.-Flux-Residual
  Residual-Control   Outer-Iter.   Inner-Iter.     Column Row Layer    Maximum-Head-Change  Column Row Layer    Maximum-Flux-Residual          L2-NORM 
          0                 1           2             2    2     1       0.4764287214E-02       2    2    1         0.2488685068E+00      0.4282467720E+00
          0                 2           2             2    2     1      -0.4634361463E-03       2    2    1        -0.2488691150E-01      0.4282467189E-01
          0                 3           1             2    2     1       0.3155827439E-04       2    2    1         0.1742083974E-02      0.2997717393E-02

    ------------------------------------------------
       NWT REQUIRED            3 OUTER ITERATIONS 
       AND A TOTAL OF          5 INNER ITERATIONS.
    ------------------------------------------------

 NO OUTPUT CONTROL FOR STRESS PERIOD    3   TIME STEP    5
 
 SOLVING FOR HEAD 
                                                   Max.-Head-Change                         Max.-Flux-Residual
  Residual-Control   Outer-Iter.   Inner-Iter.     Column Row Layer    Maximum-Head-Change  Column Row Layer    Maximum-Flux-Residual          L2-NORM 
          0                 1           2             2    2     1       0.4732241710E-02       2    2    1         0.2471830828E+00      0.4251351536E+00
          0                 2           2             2    2     1      -0.4603189748E-03       2    2    1        -0.2471836793E-01      0.4251349342E-01
          0                 3           1             2    2     1       0.3134600687E-04       2    2    1         0.1730285925E-02      0.2975932522E-02

    ------------------------------------------------
       NWT REQUIRED            3 OUTER ITERATIONS 
       AND A TOTAL OF          5 INNER ITERATIONS.
    ------------------------------------------------

 NO OUTPUT CONTROL FOR STRESS PERIOD    3   TIME STEP    6
 
 SOLVING FOR HEAD 
                                                   Max.-Head-Change                         Max.-Flux-Residual
  Residual-Control   Outer-Iter.   Inner-Iter.     Column Row Layer    Maximum-Head-Change  Column Row Layer    Maximum-Flux-Residual          L2-NORM 
          0                 1           2             2    2     1       0.4700648955E-02       2    2    1         0.2455215589E+00      0.4221241841E+00
          0                 2           2             2    2     1      -0.4572458444E-03       2    2    1        -0.2455221445E-01      0.4221240330E-01
          0                 3           1             2    2     1       0.3113673800E-04       2    2    1         0.1718655179E-02      0.2954866755E-02

    ------------------------------------------------
       NWT REQUIRED            3 OUTER ITERATIONS 
       AND A TOTAL OF          5 INNER ITERATIONS.
    ------------------------------------------------

 NO OUTPUT CONTROL FOR STRESS PERIOD    3   TIME STEP    7
 
 SOLVING FOR HEAD 
                                                   Max.-Head-Change                         Max.-Flux-Residual
  Residual-Control   Outer-Iter.   Inner-Iter.     Column Row Layer    Maximum-Head-Change  Column Row Layer    Maximum-Flux-Residual          L2-NORM 
          0                 1           2             2    2     1       0.4669502730E-02       2    2    1         0.2438835095E+00      0.4192166313E+00
          0                 2           2             2    2     1      -0.4542161504E-03       2    2    1        -0.2438840844E-01      0.4192165988E-01
          0                 3           1             2    2     1       0.3093042777E-04       2    2    1         0.1707188798E-02      0.2934514858E-02

    ------------------------------------------------
       NWT REQUIRED            3 OUTER ITERATIONS 
       AND A TOTAL OF          5 INNER ITERATIONS.
    ------------------------------------------------

 NO OUTPUT CONTROL FOR STRESS PERIOD    3   TIME STEP    8
 
 SOLVING FOR HEAD 
                                                   Max.-Head-Change                         Max.-Flux-Residual
  Residual-Control   Outer-Iter.   Inner-Iter.     Column Row Layer    Maximum-Head-Change  Column Row Layer    Maximum-Flux-Residual          L2-NORM 
          0                 1           2             2    2     1       0.4638795478E-02       2    2    1         0.2422686123E+00      0.4163978826E+00
          0                 2           2             2    2     1      -0.4512291555E-03       2    2    1        -0.2422691763E-01      0.4163976930E-01
          0                 3           1             2    2     1       0.3072702390E-04       2    2    1         0.1695884429E-02      0.2914773663E-02

    ------------------------------------------------
       NWT REQUIRED            3 OUTER ITERATIONS 
       AND A TOTAL OF          5 INNER ITERATIONS.
    ------------------------------------------------

 NO OUTPUT CONTROL FOR STRESS PERIOD    3   TIME STEP    9
 
 SOLVING FOR HEAD 
                                                   Max.-Head-Change                         Max.-Flux-Residual
  Residual-Control   Outer-Iter.   Inner-Iter.     Column Row Layer    Maximum-Head-Change  Column Row Layer    Maximum-Flux-Residual          L2-NORM 
          0                 1           2             2    2     1       0.4608520114E-02       2    2    1         0.2406764754E+00      0.4136649284E+00
          0                 2           2             2    2     1      -0.4482841729E-03       2    2    1        -0.2406770292E-01      0.4136647925E-01
          0                 3           1             2    2     1       0.3052648259E-04       2    2    1         0.1684739424E-02      0.2895652204E-02

    ------------------------------------------------
       NWT REQUIRED            3 OUTER ITERATIONS 
       AND A TOTAL OF          5 INNER ITERATIONS.
    ------------------------------------------------

 NO OUTPUT CONTROL FOR STRESS PERIOD    3   TIME STEP   10
 
 SOLVING FOR HEAD 
                                                   Max.-Head-Change                         Max.-Flux-Residual
  Residual-Control   Outer-Iter.   Inner-Iter.     Column Row Layer    Maximum-Head-Change  Column Row Layer    Maximum-Flux-Residual          L2-NORM 
          0                 1           2             2    2     1       0.4578583690E-02       2    2    1         0.2391021960E+00      0.4110215932E+00
          0                 2           2             2    2     1      -0.4453721602E-03       2    2    1        -0.2391027398E-01      0.4110214726E-01
          0                 3           1             2    2     1       0.3032818518E-04       2    2    1         0.1673719396E-02      0.2877150752E-02

    ------------------------------------------------
       NWT REQUIRED            3 OUTER ITERATIONS 
       AND A TOTAL OF          5 INNER ITERATIONS.
    ------------------------------------------------

 NO OUTPUT CONTROL FOR STRESS PERIOD    3   TIME STEP   11
 
 SOLVING FOR HEAD 
                                                   Max.-Head-Change                         Max.-Flux-Residual
  Residual-Control   Outer-Iter.   Inner-Iter.     Column Row Layer    Maximum-Head-Change  Column Row Layer    Maximum-Flux-Residual          L2-NORM 
          0                 1           2             2    2     1       0.4549066396E-02       2    2    1         0.2375500255E+00      0.4084470547E+00
          0                 2           2             2    2     1      -0.4425009170E-03       2    2    1        -0.2375505593E-01      0.4084469436E-01
          0                 3           1             2    2     1       0.3013266418E-04       2    2    1         0.1662854126E-02      0.2859124237E-02

    ------------------------------------------------
       NWT REQUIRED            3 OUTER ITERATIONS 
       AND A TOTAL OF          5 INNER ITERATIONS.
    ------------------------------------------------

 NO OUTPUT CONTROL FOR STRESS PERIOD    3   TIME STEP   12
 
 SOLVING FOR HEAD 
                                                   Max.-Head-Change                         Max.-Flux-Residual
  Residual-Control   Outer-Iter.   Inner-Iter.     Column Row Layer    Maximum-Head-Change  Column Row Layer    Maximum-Flux-Residual          L2-NORM 
          0                 1           2             2    2     1       0.4519961881E-02       2    2    1         0.2360195864E+00      0.4059502997E+00
          0                 2           2             2    2     1      -0.4396698266E-03       2    2    1        -0.2360201105E-01      0.4059501641E-01
          0                 3           1             2    2     1       0.2993987747E-04       2    2    1         0.1652140995E-02      0.2841642988E-02

    ------------------------------------------------
       NWT REQUIRED            3 OUTER ITERATIONS 
       AND A TOTAL OF          5 INNER ITERATIONS.
    ------------------------------------------------

 NO OUTPUT CONTROL FOR STRESS PERIOD    3   TIME STEP   13
 
 SOLVING FOR HEAD 
                                                   Max.-Head-Change                         Max.-Flux-Residual
  Residual-Control   Outer-Iter.   Inner-Iter.     Column Row Layer    Maximum-Head-Change  Column Row Layer    Maximum-Flux-Residual          L2-NORM 
          0                 1           2             2    2     1       0.4491263538E-02       2    2    1         0.2345105495E+00      0.4035294905E+00
          0                 2           2             2    2     1      -0.4368782467E-03       2    2    1        -0.2345110647E-01      0.4035293435E-01
          0                 3           1             2    2     1       0.2974978150E-04       2    2    1         0.1641577667E-02      0.2824697026E-02

    ------------------------------------------------
       NWT REQUIRED            3 OUTER ITERATIONS 
       AND A TOTAL OF          5 INNER ITERATIONS.
    ------------------------------------------------

 NO OUTPUT CONTROL FOR STRESS PERIOD    3   TIME STEP   14
 
 SOLVING FOR HEAD 
                                                   Max.-Head-Change                         Max.-Flux-Residual
  Residual-Control   Outer-Iter.   Inner-Iter.     Column Row Layer    Maximum-Head-Change  Column Row Layer    Maximum-Flux-Residual          L2-NORM 
          0                 1           2             2    2     1       0.4462878047E-02       2    2    1         0.2330180363E+00      0.4011650622E+00
          0                 2           2             2    2     1      -0.4341170982E-03       2    2    1        -0.2330185420E-01      0.4011649410E-01
          0                 3           1             2    2     1       0.2956175760E-04       2    2    1         0.1631130010E-02      0.2808158896E-02

    ------------------------------------------------
       NWT REQUIRED            3 OUTER ITERATIONS 
       AND A TOTAL OF          5 INNER ITERATIONS.
    ------------------------------------------------

 NO OUTPUT CONTROL FOR STRESS PERIOD    3   TIME STEP   15
 
 SOLVING FOR HEAD 
                                                   Max.-Head-Change                         Max.-Flux-Residual
  Residual-Control   Outer-Iter.   Inner-Iter.     Column Row Layer    Maximum-Head-Change  Column Row Layer    Maximum-Flux-Residual          L2-NORM 
          0                 1           2             2    2     1       0.4434887243E-02       2    2    1         0.2315462798E+00      0.3988685975E+00
          0                 2           2             2    2     1      -0.4313943429E-03       2    2    1        -0.2315467765E-01      0.3988684229E-01
          0                 3           1             2    2     1       0.2937634824E-04       2    2    1         0.1620827674E-02      0.2792071678E-02

    ------------------------------------------------
       NWT REQUIRED            3 OUTER ITERATIONS 
       AND A TOTAL OF          5 INNER ITERATIONS.
    ------------------------------------------------

 NO OUTPUT CONTROL FOR STRESS PERIOD    3   TIME STEP   16
 
 SOLVING FOR HEAD 
                                                   Max.-Head-Change                         Max.-Flux-Residual
  Residual-Control   Outer-Iter.   Inner-Iter.     Column Row Layer    Maximum-Head-Change  Column Row Layer    Maximum-Flux-Residual          L2-NORM 
          0                 1           2             2    2     1       0.4407284423E-02       2    2    1         0.2300949875E+00      0.3966372104E+00
          0                 2           2             2    2     1      -0.4287093281E-03       2    2    1        -0.2300954757E-01      0.3966370917E-01
          0                 3           1             2    2     1       0.2919350867E-04       2    2    1         0.1610668567E-02      0.2776455530E-02

    ------------------------------------------------
       NWT REQUIRED            3 OUTER ITERATIONS 
       AND A TOTAL OF          5 INNER ITERATIONS.
    ------------------------------------------------

 NO OUTPUT CONTROL FOR STRESS PERIOD    3   TIME STEP   17
 
 SOLVING FOR HEAD 
                                                   Max.-Head-Change                         Max.-Flux-Residual
  Residual-Control   Outer-Iter.   Inner-Iter.     Column Row Layer    Maximum-Head-Change  Column Row Layer    Maximum-Flux-Residual          L2-NORM 
          0                 1           2             2    2     1       0.4380053207E-02       2    2    1         0.2286632804E+00      0.3944651429E+00
          0                 2           2             2    2     1      -0.4260604601E-03       2    2    1        -0.2286637598E-01      0.3944651017E-01
          0                 3           1             2    2     1       0.2901313074E-04       2    2    1         0.1600646553E-02      0.2761260079E-02

    ------------------------------------------------
       NWT REQUIRED            3 OUTER ITERATIONS 
       AND A TOTAL OF          5 INNER ITERATIONS.
    ------------------------------------------------

 NO OUTPUT CONTROL FOR STRESS PERIOD    3   TIME STEP   18
 
 SOLVING FOR HEAD 
                                                   Max.-Head-Change                         Max.-Flux-Residual
  Residual-Control   Outer-Iter.   Inner-Iter.     Column Row Layer    Maximum-Head-Change  Column Row Layer    Maximum-Flux-Residual          L2-NORM 
          0                 1           2             2    2     1       0.4353208314E-02       2    2    1         0.2272519032E+00      0.3923550414E+00
          0                 2           2             2    2     1      -0.4234491716E-03       2    2    1        -0.2272523744E-01      0.3923548630E-01
          0                 3           1             2    2     1       0.2883531172E-04       2    2    1         0.1590766864E-02      0.2746484350E-02

    ------------------------------------------------
       NWT REQUIRED            3 OUTER ITERATIONS 
       AND A TOTAL OF          5 INNER ITERATIONS.
    ------------------------------------------------

 NO OUTPUT CONTROL FOR STRESS PERIOD    3   TIME STEP   19
 
 SOLVING FOR HEAD 
                                                   Max.-Head-Change                         Max.-Flux-Residual
  Residual-Control   Outer-Iter.   Inner-Iter.     Column Row Layer    Maximum-Head-Change  Column Row Layer    Maximum-Flux-Residual          L2-NORM 
          0                 1           2             2    2     1       0.4326647054E-02       2    2    1         0.2258554885E+00      0.3902878728E+00
          0                 2           2             2    2     1      -0.4208654729E-03       2    2    1        -0.2258559516E-01      0.3902877075E-01
          0                 3           1             2    2     1       0.2865937165E-04       2    2    1         0.1580991904E-02      0.2732006833E-02

    ------------------------------------------------
       NWT REQUIRED            3 OUTER ITERATIONS 
       AND A TOTAL OF          5 INNER ITERATIONS.
    ------------------------------------------------

 NO OUTPUT CONTROL FOR STRESS PERIOD    3   TIME STEP   20
 
 SOLVING FOR HEAD 
                                                   Max.-Head-Change                         Max.-Flux-Residual
  Residual-Control   Outer-Iter.   Inner-Iter.     Column Row Layer    Maximum-Head-Change  Column Row Layer    Maximum-Flux-Residual          L2-NORM 
          0                 1           2             2    2     1       0.4300537783E-02       2    2    1         0.2244828532E+00      0.3882776651E+00
          0                 2           2             2    2     1      -0.4183257406E-03       2    2    1        -0.2244833082E-01      0.3882776233E-01
          0                 3           1             2    2     1       0.2848642526E-04       2    2    1         0.1571383394E-02      0.2717942158E-02

    ------------------------------------------------
       NWT REQUIRED            3 OUTER ITERATIONS 
       AND A TOTAL OF          5 INNER ITERATIONS.
    ------------------------------------------------

 NO OUTPUT CONTROL FOR STRESS PERIOD    3   TIME STEP   21
 
 SOLVING FOR HEAD 
                                                   Max.-Head-Change                         Max.-Flux-Residual
  Residual-Control   Outer-Iter.   Inner-Iter.     Column Row Layer    Maximum-Head-Change  Column Row Layer    Maximum-Flux-Residual          L2-NORM 
          0                 1           2             2    2     1       0.4274700451E-02       2    2    1         0.2231245795E+00      0.3863190611E+00
          0                 2           2             2    2     1      -0.4158124612E-03       2    2    1        -0.2231250265E-01      0.3863189357E-01
          0                 3           1             2    2     1       0.2831528066E-04       2    2    1         0.1561875447E-02      0.2704228055E-02

    ------------------------------------------------
       NWT REQUIRED            3 OUTER ITERATIONS 
       AND A TOTAL OF          5 INNER ITERATIONS.
    ------------------------------------------------

 NO OUTPUT CONTROL FOR STRESS PERIOD    3   TIME STEP   22
 
 SOLVING FOR HEAD 
                                                   Max.-Head-Change                         Max.-Flux-Residual
  Residual-Control   Outer-Iter.   Inner-Iter.     Column Row Layer    Maximum-Head-Change  Column Row Layer    Maximum-Flux-Residual          L2-NORM 
          0                 1           2             2    2     1       0.4249129994E-02       2    2    1         0.2217804052E+00      0.3844004757E+00
          0                 2           2             2    2     1      -0.4133251415E-03       2    2    1        -0.2217808447E-01      0.3844002602E-01
          0                 3           1             2    2     1       0.2814590378E-04       2    2    1         0.1552466185E-02      0.2690795530E-02

    ------------------------------------------------
       NWT REQUIRED            3 OUTER ITERATIONS 
       AND A TOTAL OF          5 INNER ITERATIONS.
    ------------------------------------------------

 NO OUTPUT CONTROL FOR STRESS PERIOD    3   TIME STEP   23
 
 SOLVING FOR HEAD 
                                                   Max.-Head-Change                         Max.-Flux-Residual
  Residual-Control   Outer-Iter.   Inner-Iter.     Column Row Layer    Maximum-Head-Change  Column Row Layer    Maximum-Flux-Residual          L2-NORM 
          0                 1           2             2    2     1       0.4223995130E-02       2    2    1         0.2204591422E+00      0.3825384507E+00
          0                 2           2             2    2     1      -0.4108801935E-03       2    2    1        -0.2204595744E-01      0.3825382209E-01
          0                 3           1             2    2     1       0.2797941147E-04       2    2    1         0.1543217276E-02      0.2677765780E-02

    ------------------------------------------------
       NWT REQUIRED            3 OUTER ITERATIONS 
       AND A TOTAL OF          5 INNER ITERATIONS.
    ------------------------------------------------

 NO OUTPUT CONTROL FOR STRESS PERIOD    3   TIME STEP   24
 
 SOLVING FOR HEAD 
                                                   Max.-Head-Change                         Max.-Flux-Residual
  Residual-Control   Outer-Iter.   Inner-Iter.     Column Row Layer    Maximum-Head-Change  Column Row Layer    Maximum-Flux-Residual          L2-NORM 
          0                 1           2             2    2     1       0.4199203168E-02       2    2    1         0.2191559272E+00      0.3807154371E+00
          0                 2           2             2    2     1      -0.4084686007E-03       2    2    1        -0.2191563520E-01      0.3807153059E-01
          0                 3           1             2    2     1       0.2781519122E-04       2    2    1         0.1534094733E-02      0.2665005357E-02

    ------------------------------------------------
       NWT REQUIRED            3 OUTER ITERATIONS 
       AND A TOTAL OF          5 INNER ITERATIONS.
    ------------------------------------------------

 NO OUTPUT CONTROL FOR STRESS PERIOD    3   TIME STEP   25
 
 SOLVING FOR HEAD 
                                                   Max.-Head-Change                         Max.-Flux-Residual
  Residual-Control   Outer-Iter.   Inner-Iter.     Column Row Layer    Maximum-Head-Change  Column Row Layer    Maximum-Flux-Residual          L2-NORM 
          0                 1           2             2    2     1       0.4174662275E-02       2    2    1         0.2178659538E+00      0.3789327217E+00
          0                 2           2             2    2     1      -0.4060814298E-03       2    2    1        -0.2178663715E-01      0.3789325387E-01
          0                 3           1             2    2     1       0.2765263384E-04       2    2    1         0.1525064865E-02      0.2652528921E-02

    ------------------------------------------------
       NWT REQUIRED            3 OUTER ITERATIONS 
       AND A TOTAL OF          5 INNER ITERATIONS.
    ------------------------------------------------

 NO OUTPUT CONTROL FOR STRESS PERIOD    3   TIME STEP   26
 
 SOLVING FOR HEAD 
                                                   Max.-Head-Change                         Max.-Flux-Residual
  Residual-Control   Outer-Iter.   Inner-Iter.     Column Row Layer    Maximum-Head-Change  Column Row Layer    Maximum-Flux-Residual          L2-NORM 
          0                 1           2             2    2     1       0.4150454191E-02       2    2    1         0.2165935354E+00      0.3771969180E+00
          0                 2           2             2    2     1      -0.4037266333E-03       2    2    1        -0.2165939463E-01      0.3771967835E-01
          0                 3           1             2    2     1       0.2749228107E-04       2    2    1         0.1516157895E-02      0.2640372519E-02

    ------------------------------------------------
       NWT REQUIRED            3 OUTER ITERATIONS 
       AND A TOTAL OF          5 INNER ITERATIONS.
    ------------------------------------------------

 NO OUTPUT CONTROL FOR STRESS PERIOD    3   TIME STEP   27
 
 SOLVING FOR HEAD 
                                                   Max.-Head-Change                         Max.-Flux-Residual
  Residual-Control   Outer-Iter.   Inner-Iter.     Column Row Layer    Maximum-Head-Change  Column Row Layer    Maximum-Flux-Residual          L2-NORM 
          0                 1           2             2    2     1       0.4126574435E-02       2    2    1         0.2153383728E+00      0.3754931001E+00
          0                 2           2             2    2     1      -0.4014037737E-03       2    2    1        -0.2153387767E-01      0.3754929045E-01
          0                 3           1             2    2     1       0.2733410333E-04       2    2    1         0.1507371724E-02      0.2628451760E-02

    ------------------------------------------------
       NWT REQUIRED            3 OUTER ITERATIONS 
       AND A TOTAL OF          5 INNER ITERATIONS.
    ------------------------------------------------

 NO OUTPUT CONTROL FOR STRESS PERIOD    3   TIME STEP   28
 
 SOLVING FOR HEAD 
                                                   Max.-Head-Change                         Max.-Flux-Residual
  Residual-Control   Outer-Iter.   Inner-Iter.     Column Row Layer    Maximum-Head-Change  Column Row Layer    Maximum-Flux-Residual          L2-NORM 
          0                 1           2             2    2     1       0.4103017047E-02       2    2    1         0.2141002337E+00      0.3738409156E+00
          0                 2           2             2    2     1      -0.3991122725E-03       2    2    1        -0.2141006313E-01      0.3738406922E-01
          0                 3           1             2    2     1       0.2717805991E-04       2    2    1         0.1498704685E-02      0.2616872181E-02

    ------------------------------------------------
       NWT REQUIRED            3 OUTER ITERATIONS 
       AND A TOTAL OF          5 INNER ITERATIONS.
    ------------------------------------------------

 NO OUTPUT CONTROL FOR STRESS PERIOD    3   TIME STEP   29
 
 SOLVING FOR HEAD 
                                                   Max.-Head-Change                         Max.-Flux-Residual
  Residual-Control   Outer-Iter.   Inner-Iter.     Column Row Layer    Maximum-Head-Change  Column Row Layer    Maximum-Flux-Residual          L2-NORM 
          0                 1           2             2    2     1       0.6419832722E-02       2    2    1         0.3352040028E+00      0.5768044290E+00
          0                 2           2             2    2     1      -0.6244762585E-03       2    2    1        -0.3352050603E-01      0.5768051480E-01
          0                 3           1             2    2     1       0.4252450251E-04       2    2    1         0.2346435431E-02      0.4037634425E-02

    ------------------------------------------------
       NWT REQUIRED            3 OUTER ITERATIONS 
       AND A TOTAL OF          5 INNER ITERATIONS.
    ------------------------------------------------

 NO OUTPUT CONTROL FOR STRESS PERIOD    3   TIME STEP   30



 STREAM LISTING     PERIOD      3   STEP       30

 LAYER ROW COL. STREAM  RCH.  FLOW INTO     FLOW TO   FLOW OUT OF   OVRLND.     DIRECT     STREAM       STREAM     STREAM     STREAM   STREAMBED  STREAMBED
                SEG.NO.  NO.  STRM. RCH.    AQUIFER    STRM. RCH.    RUNOFF     PRECIP       ET          HEAD       DEPTH      WIDTH   CONDCTNC.   GRADIENT

   1    1    1     1     1    5.4376E+01  3.5202E-01   5.4024E+01  0.000E+00  0.000E+00  0.000E+00  1.09450E+03  1.455E+00  1.756E+01  7.901E-02  1.485E+00
   1    2    2     1     2    5.4024E+01  5.4505E-01   5.3479E+01  0.000E+00  0.000E+00  0.000E+00  1.08951E+03  1.449E+00  1.750E+01  1.225E-01  1.483E+00
   1    3    3     1     3    5.3479E+01  4.6474E-01   5.3014E+01  0.000E+00  0.000E+00  0.000E+00  1.08386E+03  1.443E+00  1.743E+01  1.046E-01  1.481E+00
   1    3    4     1     4    5.3014E+01  4.2788E-01   5.2587E+01  0.000E+00  0.000E+00  0.000E+00  1.07884E+03  1.437E+00  1.738E+01  9.643E-02  1.479E+00
   1    4    5     2     1    5.0587E+01  3.7745E-01   5.0209E+01  0.000E+00  0.000E+00  0.000E+00  1.07377E+03  1.839E+00  1.200E+01  7.800E-02  1.613E+00
   1    5    6     2     2    5.0209E+01  2.8990E-01   4.9919E+01  0.000E+00  0.000E+00  0.000E+00  1.06834E+03  1.832E+00  1.200E+01  6.000E-02  1.611E+00
   1    6    6     2     3    4.9919E+01  2.8952E-01   4.9630E+01  0.000E+00  0.000E+00  0.000E+00  1.06362E+03  1.825E+00  1.200E+01  6.000E-02  1.608E+00
   1    7    6     2     4    4.9630E+01  2.8914E-01   4.9341E+01  0.000E+00  0.000E+00  0.000E+00  1.05889E+03  1.819E+00  1.200E+01  6.000E-02  1.606E+00
   1    8    6     2     5    4.9341E+01  2.8876E-01   4.9052E+01  0.000E+00  0.000E+00  0.000E+00  1.05417E+03  1.813E+00  1.200E+01  6.000E-02  1.604E+00
   1    3    5     3     1    2.0000E+00  2.8252E-01   1.7175E+00  0.000E+00  0.000E+00  0.000E+00  1.07555E+03  1.909E+00  9.636E+00  7.227E-02  1.955E+00
   1    3    6     3     2    1.7175E+00  2.4905E-01   1.4684E+00  0.000E+00  0.000E+00  0.000E+00  1.07264E+03  1.727E+00  8.909E+00  6.682E-02  1.864E+00
   1    3    7     3     3    1.4684E+00  1.9718E-01   1.2712E+00  0.000E+00  0.000E+00  0.000E+00  1.06987E+03  1.555E+00  8.218E+00  5.547E-02  1.777E+00
   1    4    8     3     4    1.2712E+00  2.2567E-01   1.0456E+00  0.000E+00  0.000E+00  0.000E+00  1.06682E+03  1.364E+00  7.455E+00  6.709E-02  1.682E+00
   1    5    8     3     5    1.0456E+00  1.5790E-01   8.8768E-01  0.000E+00  0.000E+00  0.000E+00  1.06362E+03  1.164E+00  6.655E+00  4.991E-02  1.582E+00
   1    6    8     3     6    8.8768E-01  5.5980E-02   8.3170E-01  0.000E+00  0.000E+00  0.000E+00  1.06158E+03  1.036E+00  6.145E+00  1.844E-02  1.518E+00
   1    5   10     4     1    1.0000E+01  9.0919E-02   9.9091E+00  0.000E+00  0.000E+00  0.000E+00  1.07836E+03  6.368E-01  1.000E+01  2.500E-02  1.212E+00
   1    5    9     4     2    9.9091E+00  1.8158E-01   9.7275E+00  0.000E+00  0.000E+00  0.000E+00  1.07154E+03  6.315E-01  1.000E+01  5.000E-02  1.211E+00
   1    6    8     4     3    9.7275E+00  1.2689E-01   9.6006E+00  0.000E+00  0.000E+00  0.000E+00  1.06381E+03  6.256E-01  1.000E+01  3.500E-02  1.209E+00
   1    6    8     5     1    1.0432E+01  2.2686E-01   1.0205E+01  0.000E+00  0.000E+00  0.000E+00  1.05868E+03  6.790E-01  1.542E+01  6.166E-02  1.226E+00
   1    7    7     5     2    1.0205E+01  2.7894E-01   9.9265E+00  0.000E+00  0.000E+00  0.000E+00  1.05417E+03  6.732E-01  1.519E+01  7.594E-02  1.224E+00
   1    8    7     5     3    9.9265E+00  1.9221E-01   9.7343E+00  0.000E+00  0.000E+00  0.000E+00  1.04992E+03  6.676E-01  1.497E+01  5.241E-02  1.223E+00
   1    8    6     5     4    9.7343E+00  1.3577E-01   9.5985E+00  0.000E+00  0.000E+00  0.000E+00  1.04691E+03  6.637E-01  1.482E+01  3.706E-02  1.221E+00
   1    9    6     6     1    9.5985E+00  2.2097E-01   9.3776E+00  0.000E+00  0.000E+00  0.000E+00  1.04341E+03  6.828E-01  1.200E+01  6.000E-02  1.228E+00
   1   10    7     6     2    9.3776E+00  2.2039E-01   9.1572E+00  0.000E+00  0.000E+00  0.000E+00  1.03885E+03  6.732E-01  1.200E+01  6.000E-02  1.224E+00
   1   11    7     6     3    9.1572E+00  2.1981E-01   8.9374E+00  0.000E+00  0.000E+00  0.000E+00  1.03430E+03  6.636E-01  1.200E+01  6.000E-02  1.221E+00
   1   12    7     6     4    8.9374E+00  2.1923E-01   8.7181E+00  0.000E+00  0.000E+00  0.000E+00  1.02974E+03  6.539E-01  1.200E+01  6.000E-02  1.218E+00
   1   13    7     6     5    8.7181E+00 -1.1502E-01   8.8331E+00  0.000E+00  0.000E+00  0.000E+00  1.02656E+03  6.515E-01  1.200E+01  2.400E-01 -1.597E-01
   1   14    9     7     1    1.5000E+02  1.3354E+00   1.4866E+02  0.000E+00  0.000E+00  0.000E+00  1.03987E+03  2.288E+00  5.529E+01  5.593E-01  7.959E-01
   1   13    8     7     2    1.4866E+02  1.8382E+00   1.4683E+02  0.000E+00  0.000E+00  0.000E+00  1.03478E+03  2.279E+00  5.526E+01  6.148E-01  9.967E-01
   1   13    7     7     3    1.4683E+02  1.4798E+00   1.4535E+02  0.000E+00  0.000E+00  0.000E+00  1.02969E+03  2.270E+00  5.522E+01  5.584E-01  8.833E-01
   1   13    6     8     1    1.5418E+02  8.3148E-01   1.5335E+02  0.000E+00  0.000E+00  0.000E+00  1.02472E+03  2.843E+00  4.123E+01  4.201E-01  6.597E-01
   1   13    5     8     2    1.5335E+02  1.0326E-01   1.5324E+02  0.000E+00  0.000E+00  0.000E+00  1.01846E+03  2.840E+00  4.118E+01  4.196E-01  8.203E-02
   1   13    4     8     3    1.5324E+02 -2.6696E+00   1.5591E+02  0.000E+00  0.000E+00  0.000E+00  1.01222E+03  2.849E+00  4.131E+01  4.209E+00 -2.114E-01
   1   13    3     8     4    1.5591E+02 -3.7490E+00   1.5966E+02  0.000E+00  0.000E+00  0.000E+00  1.00600E+03  2.871E+00  4.163E+01  4.242E+00 -2.946E-01
   1   13    2     8     5    1.5966E+02 -2.6021E+00   1.6227E+02  0.000E+00  0.000E+00  0.000E+00  9.99767E+02  2.892E+00  4.194E+01  4.274E+00 -2.030E-01
   1   13    1     8     6    1.6227E+02 -1.9819E+00   1.6425E+02  0.000E+00  0.000E+00  0.000E+00  9.94783E+02  2.908E+00  4.216E+01  2.578E+00 -2.563E-01
   1    8    6     9     1    4.9052E+01  0.0000E+00   4.9052E+01  0.000E+00  0.000E+00  0.000E+00  1.08463E+03  5.884E+00  4.000E+00  0.000E+00  2.961E+00
   1    8    5     9     2    4.9052E+01  0.0000E+00   4.9052E+01  0.000E+00  0.000E+00  0.000E+00  1.08413E+03  5.884E+00  4.000E+00  0.000E+00  2.961E+00





UNSATURATED ZONE PACKAGE VOLUMETRIC BUDGET FOR  TIME STEP    30 STRESS PERIOD    3
  ------------------------------------------------------------------------------



     CUMULATIVE VOLUMES      L**3       RATES FOR THIS TIME STEP      L**3/T
     ------------------                 ------------------------

           IN:                                      IN:
           ---                                      ---
        INFILTRATION =     4531073.7455          INFILTRATION =           0.8475

          OUT:                                     OUT:
          ----                                     ----
              UZF ET =     3944985.5897                UZF ET =           0.7500
        UZF RECHARGE =       73224.0000          UZF RECHARGE =       0.0000E+00

            IN - OUT =      512864.1558              IN - OUT =       9.7500E-02

          STORAGE:                                 STORAGE:
          --------                                 --------
      STORAGE CHANGE =      512864.1946        STORAGE CHANGE =       9.7500E-02

 PERCENT DISCREPANCY IS DIFFERENCE BETWEEN IN-OUT MINUS CHANGE IN STORAGE
 DIVIDED BY THE AVERAGE OF IN AND OUT TIMES 100

 PERCENT DISCREPANCY =          -0.00     PERCENT DISCREPANCY =           0.00






1
  VOLUMETRIC BUDGET FOR ENTIRE MODEL AT END OF TIME STEP   30, STRESS PERIOD   3
  ------------------------------------------------------------------------------

     CUMULATIVE VOLUMES      L**3       RATES FOR THIS TIME STEP      L**3/T
     ------------------                 ------------------------

           IN:                                      IN:
           ---                                      ---
             STORAGE     =     3641604.5000               STORAGE     =           0.6215
       CONSTANT HEAD     =           0.0000         CONSTANT HEAD     =           0.0000
     HEAD DEP BOUNDS     =     1527404.7500       HEAD DEP BOUNDS     =           0.2857
      STREAM LEAKAGE     =    60591344.0000        STREAM LEAKAGE     =          12.1945
        UZF RECHARGE     =       73223.9531          UZF RECHARGE     =           0.0000
               GW ET     =           0.0000                 GW ET     =           0.0000
     SURFACE LEAKAGE     =           0.0000       SURFACE LEAKAGE     =           0.0000

                TOTAL IN =    65833576.0000                  TOTAL IN =          13.1018

          OUT:                                     OUT:
          ----                                     ----
             STORAGE     =     4817324.5000               STORAGE     =           1.6975
       CONSTANT HEAD     =           0.0000         CONSTANT HEAD     =           0.0000
     HEAD DEP BOUNDS     =     1534270.3750       HEAD DEP BOUNDS     =           0.2870
      STREAM LEAKAGE     =    59482300.0000        STREAM LEAKAGE     =          11.1176
        UZF RECHARGE     =           0.0000          UZF RECHARGE     =           0.0000
               GW ET     =           0.0000                 GW ET     =           0.0000
     SURFACE LEAKAGE     =           0.0000       SURFACE LEAKAGE     =           0.0000

               TOTAL OUT =    65833896.0000                 TOTAL OUT =          13.1021

                IN - OUT =        -320.0000                  IN - OUT =      -3.0231E-04

     PERCENT DISCREPANCY =          -0.00         PERCENT DISCREPANCY =          -0.00






         TIME SUMMARY AT END OF TIME STEP   30 IN STRESS PERIOD    3
                    SECONDS     MINUTES      HOURS       DAYS        YEARS
                    -----------------------------------------------------------
   TIME STEP LENGTH  87667.      1461.1      24.352      1.0147     2.77799E-03
 STRESS PERIOD TIME 2.63000E+06  43833.      730.56      30.440     8.33397E-02
         TOTAL TIME 5.34640E+06  89107.      1485.1      61.880     0.16942    
1
1
                            STRESS PERIOD NO.    4, LENGTH =   2630000.    
                            -----------------------------------------------

                              NUMBER OF TIME STEPS =    30

                               MULTIPLIER FOR DELT =     1.000

                            INITIAL TIME STEP SIZE =   87666.66    

 REUSING NON-PARAMETER GHB CELLS FROM LAST STRESS PERIOD

      2 GHB CELLS

 REUSING STREAM SEGMENT DATA FROM LAST STRESS PERIOD



            AREAL INFILTRATION RATE
 READING ON UNIT   19 WITH FORMAT: (FREE)              

            1           2           3           4           5           6           7           8           9          10
 ........................................................................................................................
   1   1.0000E-10  2.0000E-10   0.000       0.000       0.000       0.000       0.000       0.000       0.000       0.000    
   2   2.0000E-10  1.0000E-10  2.0000E-10   0.000       0.000      8.0000E-10  8.0000E-10  5.0000E-10   0.000       0.000    
   3    0.000      5.0000E-10  1.0000E-10  1.0000E-10  8.0000E-10  8.0000E-10  5.0000E-10  5.0000E-10   0.000       0.000    
   4   8.0000E-10  5.0000E-10  1.0000E-10  1.0000E-10  1.0000E-10  1.0000E-10  1.0000E-10  1.0000E-10  2.0000E-10   0.000    
   5   8.0000E-10  5.0000E-10  1.0000E-10  1.0000E-10  1.0000E-10  1.0000E-10  1.0000E-10  1.0000E-10  1.0000E-10  1.0000E-10
   6   8.0000E-10  5.0000E-10  5.0000E-10  2.0000E-10  2.0000E-10  1.0000E-10  1.0000E-10  1.0000E-10  1.0000E-10  5.0000E-10
   7   8.0000E-10  5.0000E-10  5.0000E-10  2.0000E-10  2.0000E-10  1.0000E-10  1.0000E-10  2.0000E-10  2.0000E-10   0.000    
   8    0.000      5.0000E-10  5.0000E-10  2.0000E-10  2.0000E-10  1.0000E-10  1.0000E-10  2.0000E-10  5.0000E-10   0.000    
   9    0.000      5.0000E-10  5.0000E-10  2.0000E-10  2.0000E-10  1.0000E-10  1.0000E-10  2.0000E-10  5.0000E-10   0.000    
  10    0.000      5.0000E-10  5.0000E-10  2.0000E-10  2.0000E-10  1.0000E-10  1.0000E-10  2.0000E-10  5.0000E-10  8.0000E-10
  11    0.000      1.0000E-10  1.0000E-10  1.0000E-10  1.0000E-10  1.0000E-10  1.0000E-10  2.0000E-10  5.0000E-10   0.000    
  12   1.0000E-10  1.0000E-10  1.0000E-10  1.0000E-10  1.0000E-10  1.0000E-10  1.0000E-10  1.0000E-10  2.0000E-10   0.000    
  13   1.0000E-10  1.0000E-10  2.0000E-10  2.0000E-10  2.0000E-10  2.0000E-10  2.0000E-10  1.0000E-10  1.0000E-10   0.000    
  14    0.000      2.0000E-10  5.0000E-10  5.0000E-10  5.0000E-10  5.0000E-10  5.0000E-10  2.0000E-10  1.0000E-10   0.000    
  15    0.000       0.000      8.0000E-10  8.0000E-10  8.0000E-10  8.0000E-10   0.000       0.000       0.000       0.000    

                  ET RATE =  5.000000E-10

 USING ET EXTINCTION DEPTH FROM PREVIOUS STRESS PERIOD. CURRENT PERIOD IS:       4

 USING EXTINCTION WATER CONTENT FROM PREVIOUS STRESS PERIOD. CURRENT PERIOD IS:       4

 USING AIR ENTRY PRESSURE FROM PREVIOUS STRESS PERIOD. CURRENT PERIOD IS:       4

 USING ROOT PRESSURE HEAD FROM PREVIOUS STRESS PERIOD. CURRENT PERIOD IS:       4

 USING ROOT ACTIVITY FROM PREVIOUS STRESS PERIOD. CURRENT PERIOD IS:       4
 
 SOLVING FOR HEAD 
                                                   Max.-Head-Change                         Max.-Flux-Residual
  Residual-Control   Outer-Iter.   Inner-Iter.     Column Row Layer    Maximum-Head-Change  Column Row Layer    Maximum-Flux-Residual          L2-NORM 
          0                 1           2             2    2     1       0.6737666987E-02       2    2    1         0.3518061627E+00      0.6047414303E+00
          0                 2           2             2    2     1      -0.6553930326E-03       2    2    1        -0.3518073306E-01      0.6047422412E-01
          0                 3           1             2    2     1       0.4462981848E-04       2    2    1         0.2462651261E-02      0.4233191386E-02

    ------------------------------------------------
       NWT REQUIRED            3 OUTER ITERATIONS 
       AND A TOTAL OF          5 INNER ITERATIONS.
    ------------------------------------------------

 NO OUTPUT CONTROL FOR STRESS PERIOD    4   TIME STEP    1
 
 SOLVING FOR HEAD 
                                                   Max.-Head-Change                         Max.-Flux-Residual
  Residual-Control   Outer-Iter.   Inner-Iter.     Column Row Layer    Maximum-Head-Change  Column Row Layer    Maximum-Flux-Residual          L2-NORM 
          0                 1           2             2    2     1       0.6695130205E-02       2    2    1         0.3495694234E+00      0.6007856382E+00
          0                 2           2             2    2     1      -0.6512553320E-03       2    2    1        -0.3495705705E-01      0.6007864236E-01
          0                 3           1             2    2     1       0.4434805682E-04       2    2    1         0.2446993959E-02      0.4205501015E-02

    ------------------------------------------------
       NWT REQUIRED            3 OUTER ITERATIONS 
       AND A TOTAL OF          5 INNER ITERATIONS.
    ------------------------------------------------

 NO OUTPUT CONTROL FOR STRESS PERIOD    4   TIME STEP    2
 
 SOLVING FOR HEAD 
                                                   Max.-Head-Change                         Max.-Flux-Residual
  Residual-Control   Outer-Iter.   Inner-Iter.     Column Row Layer    Maximum-Head-Change  Column Row Layer    Maximum-Flux-Residual          L2-NORM 
          0                 1           2             2    2     1       0.6653187405E-02       2    2    1         0.3473639424E+00      0.5969697630E+00
          0                 2           2             2    2     1      -0.6471754103E-03       2    2    1        -0.3473650691E-01      0.5969705740E-01
          0                 3           1             2    2     1       0.4407022914E-04       2    2    1         0.2431555450E-02      0.4178794688E-02

    ------------------------------------------------
       NWT REQUIRED            3 OUTER ITERATIONS 
       AND A TOTAL OF          5 INNER ITERATIONS.
    ------------------------------------------------

 NO OUTPUT CONTROL FOR STRESS PERIOD    4   TIME STEP    3
 
 SOLVING FOR HEAD 
                                                   Max.-Head-Change                         Max.-Flux-Residual
  Residual-Control   Outer-Iter.   Inner-Iter.     Column Row Layer    Maximum-Head-Change  Column Row Layer    Maximum-Flux-Residual          L2-NORM 
          0                 1           2             2    2     1       0.6611828707E-02       2    2    1         0.3451892587E+00      0.5932855168E+00
          0                 2           2             2    2     1      -0.6431523067E-03       2    2    1        -0.3451903653E-01      0.5932862715E-01
          0                 3           1             2    2     1       0.4379627154E-04       2    2    1         0.2416332557E-02      0.4153001439E-02

    ------------------------------------------------
       NWT REQUIRED            3 OUTER ITERATIONS 
       AND A TOTAL OF          5 INNER ITERATIONS.
    ------------------------------------------------

 NO OUTPUT CONTROL FOR STRESS PERIOD    4   TIME STEP    4
 
 SOLVING FOR HEAD 
                                                   Max.-Head-Change                         Max.-Flux-Residual
  Residual-Control   Outer-Iter.   Inner-Iter.     Column Row Layer    Maximum-Head-Change  Column Row Layer    Maximum-Flux-Residual          L2-NORM 
          0                 1           2             2    2     1       0.6570958257E-02       2    2    1         0.3430403209E+00      0.5897182212E+00
          0                 2           2             2    2     1      -0.6391766975E-03       2    2    1        -0.3430414082E-01      0.5897189563E-01
          0                 3           1             2    2     1       0.4352554761E-04       2    2    1         0.2401289875E-02      0.4128030820E-02

    ------------------------------------------------
       NWT REQUIRED            3 OUTER ITERATIONS 
       AND A TOTAL OF          5 INNER ITERATIONS.
    ------------------------------------------------

 NO OUTPUT CONTROL FOR STRESS PERIOD    4   TIME STEP    5
 
 SOLVING FOR HEAD 
                                                   Max.-Head-Change                         Max.-Flux-Residual
  Residual-Control   Outer-Iter.   Inner-Iter.     Column Row Layer    Maximum-Head-Change  Column Row Layer    Maximum-Flux-Residual          L2-NORM 
          0                 1           2             2    2     1       0.6530654799E-02       2    2    1         0.3409212371E+00      0.5862682762E+00
          0                 2           2             2    2     1      -0.6352562410E-03       2    2    1        -0.3409223054E-01      0.5862689877E-01
          0                 3           1             2    2     1       0.4325857945E-04       2    2    1         0.2386456168E-02      0.4103882123E-02

    ------------------------------------------------
       NWT REQUIRED            3 OUTER ITERATIONS 
       AND A TOTAL OF          5 INNER ITERATIONS.
    ------------------------------------------------

 NO OUTPUT CONTROL FOR STRESS PERIOD    4   TIME STEP    6
 
 SOLVING FOR HEAD 
                                                   Max.-Head-Change                         Max.-Flux-Residual
  Residual-Control   Outer-Iter.   Inner-Iter.     Column Row Layer    Maximum-Head-Change  Column Row Layer    Maximum-Flux-Residual          L2-NORM 
          0                 1           2             2    2     1       0.6490822432E-02       2    2    1         0.3388270118E+00      0.5829266874E+00
          0                 2           2             2    2     1      -0.6313816095E-03       2    2    1        -0.3388280614E-01      0.5829273779E-01
          0                 3           1             2    2     1       0.4299473136E-04       2    2    1         0.2371796458E-02      0.4080492501E-02

    ------------------------------------------------
       NWT REQUIRED            3 OUTER ITERATIONS 
       AND A TOTAL OF          5 INNER ITERATIONS.
    ------------------------------------------------

 NO OUTPUT CONTROL FOR STRESS PERIOD    4   TIME STEP    7
 
 SOLVING FOR HEAD 
                                                   Max.-Head-Change                         Max.-Flux-Residual
  Residual-Control   Outer-Iter.   Inner-Iter.     Column Row Layer    Maximum-Head-Change  Column Row Layer    Maximum-Flux-Residual          L2-NORM 
          0                 1           2             2    2     1       0.6451626994E-02       2    2    1         0.3367662908E+00      0.5796915625E+00
          0                 2           2             2    2     1      -0.6275689349E-03       2    2    1        -0.3367673225E-01      0.5796923007E-01
          0                 3           1             2    2     1       0.4273510267E-04       2    2    1         0.2357371278E-02      0.4057847437E-02

    ------------------------------------------------
       NWT REQUIRED            3 OUTER ITERATIONS 
       AND A TOTAL OF          5 INNER ITERATIONS.
    ------------------------------------------------

 NO OUTPUT CONTROL FOR STRESS PERIOD    4   TIME STEP    8
 
 SOLVING FOR HEAD 
                                                   Max.-Head-Change                         Max.-Flux-Residual
  Residual-Control   Outer-Iter.   Inner-Iter.     Column Row Layer    Maximum-Head-Change  Column Row Layer    Maximum-Flux-Residual          L2-NORM 
          0                 1           2             2    2     1       0.6412885390E-02       2    2    1         0.3347295146E+00      0.5765452530E+00
          0                 2           2             2    2     1      -0.6238004061E-03       2    2    1        -0.3347305284E-01      0.5765459299E-01
          0                 3           1             2    2     1       0.4247847974E-04       2    2    1         0.2343113738E-02      0.4035820506E-02

    ------------------------------------------------
       NWT REQUIRED            3 OUTER ITERATIONS 
       AND A TOTAL OF          5 INNER ITERATIONS.
    ------------------------------------------------

 NO OUTPUT CONTROL FOR STRESS PERIOD    4   TIME STEP    9
 
 SOLVING FOR HEAD 
                                                   Max.-Head-Change                         Max.-Flux-Residual
  Residual-Control   Outer-Iter.   Inner-Iter.     Column Row Layer    Maximum-Head-Change  Column Row Layer    Maximum-Flux-Residual          L2-NORM 
          0                 1           2             2    2     1       0.6374676482E-02       2    2    1         0.3327208089E+00      0.5734981765E+00
          0                 2           2             2    2     1      -0.6200836950E-03       2    2    1        -0.3327218054E-01      0.5734988117E-01
          0                 3           1             2    2     1       0.4222538560E-04       2    2    1         0.2329052672E-02      0.4014489554E-02

    ------------------------------------------------
       NWT REQUIRED            3 OUTER ITERATIONS 
       AND A TOTAL OF          5 INNER ITERATIONS.
    ------------------------------------------------

 NO OUTPUT CONTROL FOR STRESS PERIOD    4   TIME STEP   10
 
 SOLVING FOR HEAD 
                                                   Max.-Head-Change                         Max.-Flux-Residual
  Residual-Control   Outer-Iter.   Inner-Iter.     Column Row Layer    Maximum-Head-Change  Column Row Layer    Maximum-Flux-Residual          L2-NORM 
          0                 1           2             2    2     1       0.6336905720E-02       2    2    1         0.3307351825E+00      0.5705390191E+00
          0                 2           2             2    2     1      -0.6164096043E-03       2    2    1        -0.3307361621E-01      0.5705396430E-01
          0                 3           1             2    2     1       0.4197519426E-04       2    2    1         0.2315153200E-02      0.3993774482E-02

    ------------------------------------------------
       NWT REQUIRED            3 OUTER ITERATIONS 
       AND A TOTAL OF          5 INNER ITERATIONS.
    ------------------------------------------------

 NO OUTPUT CONTROL FOR STRESS PERIOD    4   TIME STEP   11
 
 SOLVING FOR HEAD 
                                                   Max.-Head-Change                         Max.-Flux-Residual
  Residual-Control   Outer-Iter.   Inner-Iter.     Column Row Layer    Maximum-Head-Change  Column Row Layer    Maximum-Flux-Residual          L2-NORM 
          0                 1           2             2    2     1       0.6299651957E-02       2    2    1         0.3287768137E+00      0.5676562683E+00
          0                 2           2             2    2     1      -0.6127858044E-03       2    2    1        -0.3287777768E-01      0.5676568695E-01
          0                 3           1             2    2     1       0.4172842735E-04       2    2    1         0.2301444519E-02      0.3973591348E-02

    ------------------------------------------------
       NWT REQUIRED            3 OUTER ITERATIONS 
       AND A TOTAL OF          5 INNER ITERATIONS.
    ------------------------------------------------

 NO OUTPUT CONTROL FOR STRESS PERIOD    4   TIME STEP   12
 
 SOLVING FOR HEAD 
                                                   Max.-Head-Change                         Max.-Flux-Residual
  Residual-Control   Outer-Iter.   Inner-Iter.     Column Row Layer    Maximum-Head-Change  Column Row Layer    Maximum-Flux-Residual          L2-NORM 
          0                 1           2             2    2     1       0.6262907318E-02       2    2    1         0.3268452506E+00      0.5648539232E+00
          0                 2           2             2    2     1      -0.6092115285E-03       2    2    1        -0.3268461976E-01      0.5648544926E-01
          0                 3           1             2    2     1       0.4148503232E-04       2    2    1         0.2287923458E-02      0.3953978694E-02

    ------------------------------------------------
       NWT REQUIRED            3 OUTER ITERATIONS 
       AND A TOTAL OF          5 INNER ITERATIONS.
    ------------------------------------------------

 NO OUTPUT CONTROL FOR STRESS PERIOD    4   TIME STEP   13
 
 SOLVING FOR HEAD 
                                                   Max.-Head-Change                         Max.-Flux-Residual
  Residual-Control   Outer-Iter.   Inner-Iter.     Column Row Layer    Maximum-Head-Change  Column Row Layer    Maximum-Flux-Residual          L2-NORM 
          0                 1           2             2    2     1       0.6226664127E-02       2    2    1         0.3249400851E+00      0.5621286248E+00
          0                 2           2             2    2     1      -0.6056860305E-03       2    2    1        -0.3249410162E-01      0.5621291765E-01
          0                 3           1             2    2     1       0.4124495947E-04       2    2    1         0.2274587210E-02      0.3934901322E-02

    ------------------------------------------------
       NWT REQUIRED            3 OUTER ITERATIONS 
       AND A TOTAL OF          5 INNER ITERATIONS.
    ------------------------------------------------

 NO OUTPUT CONTROL FOR STRESS PERIOD    4   TIME STEP   14
 
 SOLVING FOR HEAD 
                                                   Max.-Head-Change                         Max.-Flux-Residual
  Residual-Control   Outer-Iter.   Inner-Iter.     Column Row Layer    Maximum-Head-Change  Column Row Layer    Maximum-Flux-Residual          L2-NORM 
          0                 1           2             2    2     1       0.6190827219E-02       2    2    1         0.3230563780E+00      0.5594698681E+00
          0                 2           2             2    2     1      -0.6022000537E-03       2    2    1        -0.3230572940E-01      0.5594704189E-01
          0                 3           1             2    2     1       0.4100757784E-04       2    2    1         0.2261401166E-02      0.3916291492E-02

    ------------------------------------------------
       NWT REQUIRED            3 OUTER ITERATIONS 
       AND A TOTAL OF          5 INNER ITERATIONS.
    ------------------------------------------------

 NO OUTPUT CONTROL FOR STRESS PERIOD    4   TIME STEP   15
 
 SOLVING FOR HEAD 
                                                   Max.-Head-Change                         Max.-Flux-Residual
  Residual-Control   Outer-Iter.   Inner-Iter.     Column Row Layer    Maximum-Head-Change  Column Row Layer    Maximum-Flux-Residual          L2-NORM 
          0                 1           2             2    2     1       0.6155477034E-02       2    2    1         0.3211982770E+00      0.5568846414E+00
          0                 2           2             2    2     1      -0.5987614214E-03       2    2    1        -0.3211991778E-01      0.5568851120E-01
          0                 3           1             2    2     1       0.4077341946E-04       2    2    1         0.2248394349E-02      0.3898191563E-02

    ------------------------------------------------
       NWT REQUIRED            3 OUTER ITERATIONS 
       AND A TOTAL OF          5 INNER ITERATIONS.
    ------------------------------------------------

 NO OUTPUT CONTROL FOR STRESS PERIOD    4   TIME STEP   16
 
 SOLVING FOR HEAD 
                                                   Max.-Head-Change                         Max.-Flux-Residual
  Residual-Control   Outer-Iter.   Inner-Iter.     Column Row Layer    Maximum-Head-Change  Column Row Layer    Maximum-Flux-Residual          L2-NORM 
          0                 1           2             2    2     1       0.6120605947E-02       2    2    1         0.3193654121E+00      0.5543607163E+00
          0                 2           2             2    2     1      -0.5953693932E-03       2    2    1        -0.3193662981E-01      0.5543612489E-01
          0                 3           1             2    2     1       0.4054243534E-04       2    2    1         0.2235564214E-02      0.3880525067E-02

    ------------------------------------------------
       NWT REQUIRED            3 OUTER ITERATIONS 
       AND A TOTAL OF          5 INNER ITERATIONS.
    ------------------------------------------------

 NO OUTPUT CONTROL FOR STRESS PERIOD    4   TIME STEP   17
 
 SOLVING FOR HEAD 
                                                   Max.-Head-Change                         Max.-Flux-Residual
  Residual-Control   Outer-Iter.   Inner-Iter.     Column Row Layer    Maximum-Head-Change  Column Row Layer    Maximum-Flux-Residual          L2-NORM 
          0                 1           2             2    2     1       0.6086206386E-02       2    2    1         0.3175573880E+00      0.5519042541E+00
          0                 2           2             2    2     1      -0.5920232327E-03       2    2    1        -0.3175582597E-01      0.5519047516E-01
          0                 3           1             2    2     1       0.4031457436E-04       2    2    1         0.2222907963E-02      0.3863328159E-02

    ------------------------------------------------
       NWT REQUIRED            3 OUTER ITERATIONS 
       AND A TOTAL OF          5 INNER ITERATIONS.
    ------------------------------------------------

 NO OUTPUT CONTROL FOR STRESS PERIOD    4   TIME STEP   18
 
 SOLVING FOR HEAD 
                                                   Max.-Head-Change                         Max.-Flux-Residual
  Residual-Control   Outer-Iter.   Inner-Iter.     Column Row Layer    Maximum-Head-Change  Column Row Layer    Maximum-Flux-Residual          L2-NORM 
          0                 1           2             2    2     1       0.6052184383E-02       2    2    1         0.3157692701E+00      0.5495003884E+00
          0                 2           2             2    2     1      -0.5887137977E-03       2    2    1        -0.3157701275E-01      0.5495008502E-01
          0                 3           1             2    2     1       0.4008921454E-04       2    2    1         0.2210391037E-02      0.3846502612E-02

    ------------------------------------------------
       NWT REQUIRED            3 OUTER ITERATIONS 
       AND A TOTAL OF          5 INNER ITERATIONS.
    ------------------------------------------------

 NO OUTPUT CONTROL FOR STRESS PERIOD    4   TIME STEP   19
 
 SOLVING FOR HEAD 
                                                   Max.-Head-Change                         Max.-Flux-Residual
  Residual-Control   Outer-Iter.   Inner-Iter.     Column Row Layer    Maximum-Head-Change  Column Row Layer    Maximum-Flux-Residual          L2-NORM 
          0                 1           2             2    2     1       0.6018620202E-02       2    2    1         0.3140052698E+00      0.5471614856E+00
          0                 2           2             2    2     1      -0.5854488975E-03       2    2    1        -0.3140061135E-01      0.5471619636E-01
          0                 3           1             2    2     1       0.3986688746E-04       2    2    1         0.2198042956E-02      0.3830131653E-02

    ------------------------------------------------
       NWT REQUIRED            3 OUTER ITERATIONS 
       AND A TOTAL OF          5 INNER ITERATIONS.
    ------------------------------------------------

 NO OUTPUT CONTROL FOR STRESS PERIOD    4   TIME STEP   20
 
 SOLVING FOR HEAD 
                                                   Max.-Head-Change                         Max.-Flux-Residual
  Residual-Control   Outer-Iter.   Inner-Iter.     Column Row Layer    Maximum-Head-Change  Column Row Layer    Maximum-Flux-Residual          L2-NORM 
          0                 1           2             2    2     1       0.5985506659E-02       2    2    1         0.3122650071E+00      0.5448778198E+00
          0                 2           2             2    2     1      -0.5822278325E-03       2    2    1        -0.3122658374E-01      0.5448782146E-01
          0                 3           1             2    2     1       0.3964754482E-04       2    2    1         0.2185861016E-02      0.3814139104E-02

    ------------------------------------------------
       NWT REQUIRED            3 OUTER ITERATIONS 
       AND A TOTAL OF          5 INNER ITERATIONS.
    ------------------------------------------------

 NO OUTPUT CONTROL FOR STRESS PERIOD    4   TIME STEP   21
 
 SOLVING FOR HEAD 
                                                   Max.-Head-Change                         Max.-Flux-Residual
  Residual-Control   Outer-Iter.   Inner-Iter.     Column Row Layer    Maximum-Head-Change  Column Row Layer    Maximum-Flux-Residual          L2-NORM 
          0                 1           2             2    2     1       0.5952837034E-02       2    2    1         0.3105481094E+00      0.5426415070E+00
          0                 2           2             2    2     1      -0.5790499489E-03       2    2    1        -0.3105489267E-01      0.5426419416E-01
          0                 3           1             2    2     1       0.3943114261E-04       2    2    1         0.2173842650E-02      0.3798492213E-02

    ------------------------------------------------
       NWT REQUIRED            3 OUTER ITERATIONS 
       AND A TOTAL OF          5 INNER ITERATIONS.
    ------------------------------------------------

 NO OUTPUT CONTROL FOR STRESS PERIOD    4   TIME STEP   22
 
 SOLVING FOR HEAD 
                                                   Max.-Head-Change                         Max.-Flux-Residual
  Residual-Control   Outer-Iter.   Inner-Iter.     Column Row Layer    Maximum-Head-Change  Column Row Layer    Maximum-Flux-Residual          L2-NORM 
          0                 1           2             2    2     1       0.5920517456E-02       2    2    1         0.3088496858E+00      0.5404681808E+00
          0                 2           2             2    2     1      -0.5759061156E-03       2    2    1        -0.3088504900E-01      0.5404706162E-01
          0                 3           1             2    2     1       0.3921705933E-04       2    2    1         0.2161953599E-02      0.3783287529E-02

    ------------------------------------------------
       NWT REQUIRED            3 OUTER ITERATIONS 
       AND A TOTAL OF          5 INNER ITERATIONS.
    ------------------------------------------------

 NO OUTPUT CONTROL FOR STRESS PERIOD    4   TIME STEP   23
 
 SOLVING FOR HEAD 
                                                   Max.-Head-Change                         Max.-Flux-Residual
  Residual-Control   Outer-Iter.   Inner-Iter.     Column Row Layer    Maximum-Head-Change  Column Row Layer    Maximum-Flux-Residual          L2-NORM 
          0                 1           2             2    2     1       0.5888629047E-02       2    2    1         0.3071739542E+00      0.5383292541E+00
          0                 2           2             2    2     1      -0.5728042241E-03       2    2    1        -0.3071747459E-01      0.5383297018E-01
          0                 3           1             2    2     1       0.3900583246E-04       2    2    1         0.2150223395E-02      0.3768305364E-02

    ------------------------------------------------
       NWT REQUIRED            3 OUTER ITERATIONS 
       AND A TOTAL OF          5 INNER ITERATIONS.
    ------------------------------------------------

 NO OUTPUT CONTROL FOR STRESS PERIOD    4   TIME STEP   24
 
 SOLVING FOR HEAD 
                                                   Max.-Head-Change                         Max.-Flux-Residual
  Residual-Control   Outer-Iter.   Inner-Iter.     Column Row Layer    Maximum-Head-Change  Column Row Layer    Maximum-Flux-Residual          L2-NORM 
          0                 1           2             2    2     1       0.5857164683E-02       2    2    1         0.3055205782E+00      0.5362491595E+00
          0                 2           2             2    2     1      -0.5697435810E-03       2    2    1        -0.3055213577E-01      0.5362495263E-01
          0                 3           1             2    2     1       0.3879741419E-04       2    2    1         0.2138649687E-02      0.3753742567E-02

    ------------------------------------------------
       NWT REQUIRED            3 OUTER ITERATIONS 
       AND A TOTAL OF          5 INNER ITERATIONS.
    ------------------------------------------------

 NO OUTPUT CONTROL FOR STRESS PERIOD    4   TIME STEP   25
 
 SOLVING FOR HEAD 
                                                   Max.-Head-Change                         Max.-Flux-Residual
  Residual-Control   Outer-Iter.   Inner-Iter.     Column Row Layer    Maximum-Head-Change  Column Row Layer    Maximum-Flux-Residual          L2-NORM 
          0                 1           2             2    2     1       0.5826118092E-02       2    2    1         0.3038891885E+00      0.5342029717E+00
          0                 2           2             2    2     1      -0.5667235758E-03       2    2    1        -0.3038899558E-01      0.5342033278E-01
          0                 3           1             2    2     1       0.3859176263E-04       2    2    1         0.2127229871E-02      0.3739416332E-02

    ------------------------------------------------
       NWT REQUIRED            3 OUTER ITERATIONS 
       AND A TOTAL OF          5 INNER ITERATIONS.
    ------------------------------------------------

 NO OUTPUT CONTROL FOR STRESS PERIOD    4   TIME STEP   26
 
 SOLVING FOR HEAD 
                                                   Max.-Head-Change                         Max.-Flux-Residual
  Residual-Control   Outer-Iter.   Inner-Iter.     Column Row Layer    Maximum-Head-Change  Column Row Layer    Maximum-Flux-Residual          L2-NORM 
          0                 1           2             2    2     1       0.5795396223E-02       2    2    1         0.3022749165E+00      0.5322149829E+00
          0                 2           2             2    2     1      -0.5637351581E-03       2    2    1        -0.3022756720E-01      0.5322153484E-01
          0                 3           1             2    2     1       0.3838826314E-04       2    2    1         0.2115929906E-02      0.3725506267E-02

    ------------------------------------------------
       NWT REQUIRED            3 OUTER ITERATIONS 
       AND A TOTAL OF          5 INNER ITERATIONS.
    ------------------------------------------------

 NO OUTPUT CONTROL FOR STRESS PERIOD    4   TIME STEP   27
 
 SOLVING FOR HEAD 
                                                   Max.-Head-Change                         Max.-Flux-Residual
  Residual-Control   Outer-Iter.   Inner-Iter.     Column Row Layer    Maximum-Head-Change  Column Row Layer    Maximum-Flux-Residual          L2-NORM 
          0                 1           2             2    2     1       0.5765079855E-02       2    2    1         0.3006820241E+00      0.5302567585E+00
          0                 2           2             2    2     1      -0.5607861843E-03       2    2    1        -0.3006827680E-01      0.5302571971E-01
          0                 3           1             2    2     1       0.3818744942E-04       2    2    1         0.2104779580E-02      0.3711794537E-02

    ------------------------------------------------
       NWT REQUIRED            3 OUTER ITERATIONS 
       AND A TOTAL OF          5 INNER ITERATIONS.
    ------------------------------------------------

 NO OUTPUT CONTROL FOR STRESS PERIOD    4   TIME STEP   28
 
 SOLVING FOR HEAD 
                                                   Max.-Head-Change                         Max.-Flux-Residual
  Residual-Control   Outer-Iter.   Inner-Iter.     Column Row Layer    Maximum-Head-Change  Column Row Layer    Maximum-Flux-Residual          L2-NORM 
          0                 1           2             2    2     1       0.5735163065E-02       2    2    1         0.2991101565E+00      0.5283454713E+00
          0                 2           2             2    2     1      -0.5578760800E-03       2    2    1        -0.2991108893E-01      0.5283458158E-01
          0                 3           1             2    2     1       0.3798928218E-04       2    2    1         0.2093776441E-02      0.3698420861E-02

    ------------------------------------------------
       NWT REQUIRED            3 OUTER ITERATIONS 
       AND A TOTAL OF          5 INNER ITERATIONS.
    ------------------------------------------------

 NO OUTPUT CONTROL FOR STRESS PERIOD    4   TIME STEP   29
 
 SOLVING FOR HEAD 
                                                   Max.-Head-Change                         Max.-Flux-Residual
  Residual-Control   Outer-Iter.   Inner-Iter.     Column Row Layer    Maximum-Head-Change  Column Row Layer    Maximum-Flux-Residual          L2-NORM 
          0                 1           2             2    2     1       0.4578099307E-02       2    2    1         0.2386164846E+00      0.4351424523E+00
          0                 2           2             2    2     1      -0.4453248636E-03       2    2    1        -0.2386169101E-01      0.4351424930E-01
          0                 3           1             2    2     1       0.3032496595E-04       2    2    1         0.1670318695E-02      0.3045995151E-02

    ------------------------------------------------
       NWT REQUIRED            3 OUTER ITERATIONS 
       AND A TOTAL OF          5 INNER ITERATIONS.
    ------------------------------------------------

 NO OUTPUT CONTROL FOR STRESS PERIOD    4   TIME STEP   30



 STREAM LISTING     PERIOD      4   STEP       30

 LAYER ROW COL. STREAM  RCH.  FLOW INTO     FLOW TO   FLOW OUT OF   OVRLND.     DIRECT     STREAM       STREAM     STREAM     STREAM   STREAMBED  STREAMBED
                SEG.NO.  NO.  STRM. RCH.    AQUIFER    STRM. RCH.    RUNOFF     PRECIP       ET          HEAD       DEPTH      WIDTH   CONDCTNC.   GRADIENT

   1    1    1     1     1    4.6685E+01  3.2585E-01   4.6359E+01  0.000E+00  0.000E+00  0.000E+00  1.09443E+03  1.378E+00  1.654E+01  7.443E-02  1.459E+00
   1    2    2     1     2    4.6359E+01  5.0484E-01   4.5855E+01  0.000E+00  0.000E+00  0.000E+00  1.08943E+03  1.375E+00  1.648E+01  1.154E-01  1.458E+00
   1    3    3     1     3    4.5855E+01  4.3074E-01   4.5424E+01  0.000E+00  0.000E+00  0.000E+00  1.08379E+03  1.372E+00  1.642E+01  9.852E-02  1.457E+00
   1    3    4     1     4    4.5424E+01  3.9680E-01   4.5027E+01  0.000E+00  0.000E+00  0.000E+00  1.07878E+03  1.369E+00  1.636E+01  9.082E-02  1.456E+00
   1    4    5     2     1    4.3027E+01  3.6413E-01   4.2663E+01  0.000E+00  0.000E+00  0.000E+00  1.07360E+03  1.668E+00  1.200E+01  7.800E-02  1.556E+00
   1    5    6     2     2    4.2663E+01  2.7965E-01   4.2383E+01  0.000E+00  0.000E+00  0.000E+00  1.06817E+03  1.661E+00  1.200E+01  6.000E-02  1.554E+00
   1    6    6     2     3    4.2383E+01  2.7926E-01   4.2104E+01  0.000E+00  0.000E+00  0.000E+00  1.06345E+03  1.654E+00  1.200E+01  6.000E-02  1.551E+00
   1    7    6     2     4    4.2104E+01  2.7886E-01   4.1825E+01  0.000E+00  0.000E+00  0.000E+00  1.05872E+03  1.648E+00  1.200E+01  6.000E-02  1.549E+00
   1    8    6     2     5    4.1825E+01  2.7847E-01   4.1547E+01  0.000E+00  0.000E+00  0.000E+00  1.05400E+03  1.641E+00  1.200E+01  6.000E-02  1.547E+00
   1    3    5     3     1    2.0000E+00  2.8252E-01   1.7175E+00  0.000E+00  0.000E+00  0.000E+00  1.07555E+03  1.909E+00  9.636E+00  7.227E-02  1.955E+00
   1    3    6     3     2    1.7175E+00  2.4905E-01   1.4684E+00  0.000E+00  0.000E+00  0.000E+00  1.07264E+03  1.727E+00  8.909E+00  6.682E-02  1.864E+00
   1    3    7     3     3    1.4684E+00  1.9718E-01   1.2712E+00  0.000E+00  0.000E+00  0.000E+00  1.06987E+03  1.555E+00  8.218E+00  5.547E-02  1.777E+00
   1    4    8     3     4    1.2712E+00  2.2567E-01   1.0456E+00  0.000E+00  0.000E+00  0.000E+00  1.06682E+03  1.364E+00  7.455E+00  6.709E-02  1.682E+00
   1    5    8     3     5    1.0456E+00  1.5790E-01   8.8768E-01  0.000E+00  0.000E+00  0.000E+00  1.06362E+03  1.164E+00  6.655E+00  4.991E-02  1.582E+00
   1    6    8     3     6    8.8768E-01  5.5980E-02   8.3170E-01  0.000E+00  0.000E+00  0.000E+00  1.06158E+03  1.036E+00  6.145E+00  1.844E-02  1.518E+00
   1    5   10     4     1    1.0000E+01  9.0919E-02   9.9091E+00  0.000E+00  0.000E+00  0.000E+00  1.07836E+03  6.368E-01  1.000E+01  2.500E-02  1.212E+00
   1    5    9     4     2    9.9091E+00  1.8158E-01   9.7275E+00  0.000E+00  0.000E+00  0.000E+00  1.07154E+03  6.315E-01  1.000E+01  5.000E-02  1.211E+00
   1    6    8     4     3    9.7275E+00  1.2689E-01   9.6006E+00  0.000E+00  0.000E+00  0.000E+00  1.06381E+03  6.256E-01  1.000E+01  3.500E-02  1.209E+00
   1    6    8     5     1    1.0432E+01  2.2686E-01   1.0205E+01  0.000E+00  0.000E+00  0.000E+00  1.05868E+03  6.790E-01  1.542E+01  6.166E-02  1.226E+00
   1    7    7     5     2    1.0205E+01  2.7894E-01   9.9265E+00  0.000E+00  0.000E+00  0.000E+00  1.05417E+03  6.732E-01  1.519E+01  7.594E-02  1.224E+00
   1    8    7     5     3    9.9265E+00  1.9221E-01   9.7343E+00  0.000E+00  0.000E+00  0.000E+00  1.04992E+03  6.676E-01  1.497E+01  5.241E-02  1.223E+00
   1    8    6     5     4    9.7343E+00  1.3577E-01   9.5985E+00  0.000E+00  0.000E+00  0.000E+00  1.04691E+03  6.637E-01  1.482E+01  3.706E-02  1.221E+00
   1    9    6     6     1    9.5985E+00  2.2097E-01   9.3776E+00  0.000E+00  0.000E+00  0.000E+00  1.04341E+03  6.828E-01  1.200E+01  6.000E-02  1.228E+00
   1   10    7     6     2    9.3776E+00  2.2039E-01   9.1572E+00  0.000E+00  0.000E+00  0.000E+00  1.03885E+03  6.732E-01  1.200E+01  6.000E-02  1.224E+00
   1   11    7     6     3    9.1572E+00  2.1981E-01   8.9374E+00  0.000E+00  0.000E+00  0.000E+00  1.03430E+03  6.636E-01  1.200E+01  6.000E-02  1.221E+00
   1   12    7     6     4    8.9374E+00  2.1923E-01   8.7181E+00  0.000E+00  0.000E+00  0.000E+00  1.02974E+03  6.539E-01  1.200E+01  6.000E-02  1.218E+00
   1   13    7     6     5    8.7181E+00 -1.1461E-01   8.8327E+00  0.000E+00  0.000E+00  0.000E+00  1.02656E+03  6.515E-01  1.200E+01  2.400E-01 -1.592E-01
   1   14    9     7     1    1.5000E+02  1.3360E+00   1.4866E+02  0.000E+00  0.000E+00  0.000E+00  1.03987E+03  2.288E+00  5.529E+01  5.593E-01  7.963E-01
   1   13    8     7     2    1.4866E+02  1.8390E+00   1.4682E+02  0.000E+00  0.000E+00  0.000E+00  1.03478E+03  2.279E+00  5.526E+01  6.148E-01  9.971E-01
   1   13    7     7     3    1.4682E+02  1.4808E+00   1.4534E+02  0.000E+00  0.000E+00  0.000E+00  1.02969E+03  2.270E+00  5.522E+01  5.584E-01  8.839E-01
   1   13    6     8     1    1.5418E+02  8.3242E-01   1.5334E+02  0.000E+00  0.000E+00  0.000E+00  1.02472E+03  2.843E+00  4.123E+01  4.201E-01  6.605E-01
   1   13    5     8     2    1.5334E+02  1.0398E-01   1.5324E+02  0.000E+00  0.000E+00  0.000E+00  1.01846E+03  2.840E+00  4.118E+01  4.196E-01  8.260E-02
   1   13    4     8     3    1.5324E+02 -2.6671E+00   1.5591E+02  0.000E+00  0.000E+00  0.000E+00  1.01222E+03  2.849E+00  4.131E+01  4.209E+00 -2.112E-01
   1   13    3     8     4    1.5591E+02 -3.7473E+00   1.5965E+02  0.000E+00  0.000E+00  0.000E+00  1.00600E+03  2.871E+00  4.163E+01  4.242E+00 -2.945E-01
   1   13    2     8     5    1.5965E+02 -2.6015E+00   1.6226E+02  0.000E+00  0.000E+00  0.000E+00  9.99767E+02  2.892E+00  4.194E+01  4.274E+00 -2.029E-01
   1   13    1     8     6    1.6226E+02 -1.9816E+00   1.6424E+02  0.000E+00  0.000E+00  0.000E+00  9.94783E+02  2.908E+00  4.216E+01  2.578E+00 -2.562E-01
   1    8    6     9     1    4.1547E+01  0.0000E+00   4.1547E+01  0.000E+00  0.000E+00  0.000E+00  1.08408E+03  5.326E+00  4.000E+00  0.000E+00  2.775E+00
   1    8    5     9     2    4.1547E+01  0.0000E+00   4.1547E+01  0.000E+00  0.000E+00  0.000E+00  1.08358E+03  5.326E+00  4.000E+00  0.000E+00  2.775E+00





UNSATURATED ZONE PACKAGE VOLUMETRIC BUDGET FOR  TIME STEP    30 STRESS PERIOD    4
  ------------------------------------------------------------------------------



     CUMULATIVE VOLUMES      L**3       RATES FOR THIS TIME STEP      L**3/T
     ------------------                 ------------------------

           IN:                                      IN:
           ---                                      ---
        INFILTRATION =     6759998.6182          INFILTRATION =           0.8475

          OUT:                                     OUT:
          ----                                     ----
              UZF ET =     5917485.4539                UZF ET =           0.7500
        UZF RECHARGE =       73224.0000          UZF RECHARGE =       0.0000E+00

            IN - OUT =      769289.1644              IN - OUT =       9.7500E-02

          STORAGE:                                 STORAGE:
          --------                                 --------
      STORAGE CHANGE =      769289.2225        STORAGE CHANGE =       9.7500E-02

 PERCENT DISCREPANCY IS DIFFERENCE BETWEEN IN-OUT MINUS CHANGE IN STORAGE
 DIVIDED BY THE AVERAGE OF IN AND OUT TIMES 100

 PERCENT DISCREPANCY =           0.00     PERCENT DISCREPANCY =           0.00






1
  VOLUMETRIC BUDGET FOR ENTIRE MODEL AT END OF TIME STEP   30, STRESS PERIOD   4
  ------------------------------------------------------------------------------

     CUMULATIVE VOLUMES      L**3       RATES FOR THIS TIME STEP      L**3/T
     ------------------                 ------------------------

           IN:                                      IN:
           ---                                      ---
             STORAGE     =     5202370.0000               STORAGE     =           0.5681
       CONSTANT HEAD     =           0.0000         CONSTANT HEAD     =           0.0000
     HEAD DEP BOUNDS     =     2278940.0000       HEAD DEP BOUNDS     =           0.2858
      STREAM LEAKAGE     =    92866712.0000        STREAM LEAKAGE     =          12.0127
        UZF RECHARGE     =       73223.9531          UZF RECHARGE     =           0.0000
               GW ET     =           0.0000                 GW ET     =           0.0000
     SURFACE LEAKAGE     =           0.0000       SURFACE LEAKAGE     =           0.0000

                TOTAL IN =   100421248.0000                  TOTAL IN =          12.8665

          OUT:                                     OUT:
          ----                                     ----
             STORAGE     =     9419517.0000               STORAGE     =           1.4678
       CONSTANT HEAD     =           0.0000         CONSTANT HEAD     =           0.0000
     HEAD DEP BOUNDS     =     2288963.5000       HEAD DEP BOUNDS     =           0.2870
      STREAM LEAKAGE     =    88713936.0000        STREAM LEAKAGE     =          11.1121
        UZF RECHARGE     =           0.0000          UZF RECHARGE     =           0.0000
               GW ET     =           0.0000                 GW ET     =           0.0000
     SURFACE LEAKAGE     =           0.0000       SURFACE LEAKAGE     =           0.0000

               TOTAL OUT =   100422416.0000                 TOTAL OUT =          12.8668

                IN - OUT =       -1168.0000                  IN - OUT =      -2.5272E-04

     PERCENT DISCREPANCY =          -0.00         PERCENT DISCREPANCY =          -0.00






         TIME SUMMARY AT END OF TIME STEP   30 IN STRESS PERIOD    4
                    SECONDS     MINUTES      HOURS       DAYS        YEARS
                    -----------------------------------------------------------
   TIME STEP LENGTH  87667.      1461.1      24.352      1.0147     2.77799E-03
 STRESS PERIOD TIME 2.63000E+06  43833.      730.56      30.440     8.33397E-02
         TOTAL TIME 7.97639E+06 1.32940E+05  2215.7      92.319     0.25276    
1
1
                            STRESS PERIOD NO.    5, LENGTH =   2630000.    
                            -----------------------------------------------

                              NUMBER OF TIME STEPS =    30

                               MULTIPLIER FOR DELT =     1.000

                            INITIAL TIME STEP SIZE =   87666.66    

 REUSING NON-PARAMETER GHB CELLS FROM LAST STRESS PERIOD

      2 GHB CELLS

 REUSING STREAM SEGMENT DATA FROM LAST STRESS PERIOD



            AREAL INFILTRATION RATE
 READING ON UNIT   19 WITH FORMAT: (FREE)              

            1           2           3           4           5           6           7           8           9          10
 ........................................................................................................................
   1   1.0000E-10  2.0000E-10   0.000       0.000       0.000       0.000       0.000       0.000       0.000       0.000    
   2   2.0000E-10  1.0000E-10  2.0000E-10   0.000       0.000      8.0000E-10  8.0000E-10  5.0000E-10   0.000       0.000    
   3    0.000      5.0000E-10  1.0000E-10  1.0000E-10  8.0000E-10  8.0000E-10  5.0000E-10  5.0000E-10   0.000       0.000    
   4   8.0000E-10  5.0000E-10  1.0000E-10  1.0000E-10  1.0000E-10  1.0000E-10  1.0000E-10  1.0000E-10  2.0000E-10   0.000    
   5   8.0000E-10  5.0000E-10  1.0000E-10  1.0000E-10  1.0000E-10  1.0000E-10  1.0000E-10  1.0000E-10  1.0000E-10  1.0000E-10
   6   8.0000E-10  5.0000E-10  5.0000E-10  2.0000E-10  2.0000E-10  1.0000E-10  1.0000E-10  1.0000E-10  1.0000E-10  5.0000E-10
   7   8.0000E-10  5.0000E-10  5.0000E-10  2.0000E-10  2.0000E-10  1.0000E-10  1.0000E-10  2.0000E-10  2.0000E-10   0.000    
   8    0.000      5.0000E-10  5.0000E-10  2.0000E-10  2.0000E-10  1.0000E-10  1.0000E-10  2.0000E-10  5.0000E-10   0.000    
   9    0.000      5.0000E-10  5.0000E-10  2.0000E-10  2.0000E-10  1.0000E-10  1.0000E-10  2.0000E-10  5.0000E-10   0.000    
  10    0.000      5.0000E-10  5.0000E-10  2.0000E-10  2.0000E-10  1.0000E-10  1.0000E-10  2.0000E-10  5.0000E-10  8.0000E-10
  11    0.000      1.0000E-10  1.0000E-10  1.0000E-10  1.0000E-10  1.0000E-10  1.0000E-10  2.0000E-10  5.0000E-10   0.000    
  12   1.0000E-10  1.0000E-10  1.0000E-10  1.0000E-10  1.0000E-10  1.0000E-10  1.0000E-10  1.0000E-10  2.0000E-10   0.000    
  13   1.0000E-10  1.0000E-10  2.0000E-10  2.0000E-10  2.0000E-10  2.0000E-10  2.0000E-10  1.0000E-10  1.0000E-10   0.000    
  14    0.000      2.0000E-10  5.0000E-10  5.0000E-10  5.0000E-10  5.0000E-10  5.0000E-10  2.0000E-10  1.0000E-10   0.000    
  15    0.000       0.000      8.0000E-10  8.0000E-10  8.0000E-10  8.0000E-10   0.000       0.000       0.000       0.000    

                  ET RATE =  2.500000E-08

 USING ET EXTINCTION DEPTH FROM PREVIOUS STRESS PERIOD. CURRENT PERIOD IS:       5

 USING EXTINCTION WATER CONTENT FROM PREVIOUS STRESS PERIOD. CURRENT PERIOD IS:       5

 USING AIR ENTRY PRESSURE FROM PREVIOUS STRESS PERIOD. CURRENT PERIOD IS:       5

 USING ROOT PRESSURE HEAD FROM PREVIOUS STRESS PERIOD. CURRENT PERIOD IS:       5

 USING ROOT ACTIVITY FROM PREVIOUS STRESS PERIOD. CURRENT PERIOD IS:       5
 
 SOLVING FOR HEAD 
                                                   Max.-Head-Change                         Max.-Flux-Residual
  Residual-Control   Outer-Iter.   Inner-Iter.     Column Row Layer    Maximum-Head-Change  Column Row Layer    Maximum-Flux-Residual          L2-NORM 
          0                 1           2             3    2     1       0.2302077972E-02       3    2    1         0.1200241920E+00      0.2473333223E+00
          0                 2           2             3    2     1      -0.2239295925E-03       3    2    1        -0.1200243128E-01      0.2473326442E-01
          0                 3           1             3    2     1       0.1524877275E-04       3    2    1         0.8401704466E-03      0.1731328367E-02

    ------------------------------------------------
       NWT REQUIRED            3 OUTER ITERATIONS 
       AND A TOTAL OF          5 INNER ITERATIONS.
    ------------------------------------------------

 NO OUTPUT CONTROL FOR STRESS PERIOD    5   TIME STEP    1
 
 SOLVING FOR HEAD 
                                                   Max.-Head-Change                         Max.-Flux-Residual
  Residual-Control   Outer-Iter.   Inner-Iter.     Column Row Layer    Maximum-Head-Change  Column Row Layer    Maximum-Flux-Residual          L2-NORM 
          0                 1           2             3    2     1       0.2290932550E-02       3    2    1         0.1194376580E+00      0.2448232317E+00
          0                 2           2             3    2     1      -0.2228454438E-03       3    2    1        -0.1194377769E-01      0.2448225720E-01
          0                 3           1             3    2     1       0.1517494631E-04       3    2    1         0.8360646963E-03      0.1713754543E-02

    ------------------------------------------------
       NWT REQUIRED            3 OUTER ITERATIONS 
       AND A TOTAL OF          5 INNER ITERATIONS.
    ------------------------------------------------

 OUTPUT CONTROL FOR STRESS PERIOD    5   TIME STEP    2
    PRINT BUDGET
    SAVE BUDGET
 UBDSV1 SAVING "         STORAGE" ON UNIT 102 AT TIME STEP 2, STRESS PERIOD 5
 UBDSV2 SAVING "   CONSTANT HEAD" ON UNIT 102 AT TIME STEP 2, STRESS PERIOD 5
 UBDSV1 SAVING "FLOW RIGHT FACE " ON UNIT 102 AT TIME STEP 2, STRESS PERIOD 5
 UBDSV1 SAVING "FLOW FRONT FACE " ON UNIT 102 AT TIME STEP 2, STRESS PERIOD 5

  HEAD DEP BOUNDS   PERIOD    5   STEP     2
 BOUNDARY      1   LAYER   1   ROW    13   COL     1   RATE   -0.286953    
 BOUNDARY      2   LAYER   1   ROW    14   COL     9   RATE    0.285777    



 STREAM LISTING     PERIOD      5   STEP        2

 LAYER ROW COL. STREAM  RCH.  FLOW INTO     FLOW TO   FLOW OUT OF   OVRLND.     DIRECT     STREAM       STREAM     STREAM     STREAM   STREAMBED  STREAMBED
                SEG.NO.  NO.  STRM. RCH.    AQUIFER    STRM. RCH.    RUNOFF     PRECIP       ET          HEAD       DEPTH      WIDTH   CONDCTNC.   GRADIENT

   1    1    1     1     1    2.1000E+01  2.2591E-01   2.0774E+01  0.000E+00  0.000E+00  0.000E+00  1.09416E+03  1.115E+00  1.220E+01  5.490E-02  1.372E+00
   1    2    2     1     2    2.0774E+01  3.4916E-01   2.0425E+01  0.000E+00  0.000E+00  0.000E+00  1.08917E+03  1.110E+00  1.214E+01  8.495E-02  1.370E+00
   1    3    3     1     3    2.0425E+01  2.9709E-01   2.0128E+01  0.000E+00  0.000E+00  0.000E+00  1.08352E+03  1.105E+00  1.206E+01  7.238E-02  1.368E+00
   1    3    4     1     4    2.0128E+01  2.7299E-01   1.9855E+01  0.000E+00  0.000E+00  0.000E+00  1.07851E+03  1.100E+00  1.200E+01  6.659E-02  1.367E+00
   1    4    5     2     1    1.7855E+01  3.1056E-01   1.7544E+01  0.000E+00  0.000E+00  0.000E+00  1.07292E+03  9.816E-01  1.200E+01  7.800E-02  1.327E+00
   1    5    6     2     2    1.7544E+01  2.3834E-01   1.7306E+01  0.000E+00  0.000E+00  0.000E+00  1.06748E+03  9.724E-01  1.200E+01  6.000E-02  1.324E+00
   1    6    6     2     3    1.7306E+01  2.3786E-01   1.7068E+01  0.000E+00  0.000E+00  0.000E+00  1.06276E+03  9.644E-01  1.200E+01  6.000E-02  1.321E+00
   1    7    6     2     4    1.7068E+01  2.3738E-01   1.6831E+01  0.000E+00  0.000E+00  0.000E+00  1.05803E+03  9.564E-01  1.200E+01  6.000E-02  1.319E+00
   1    8    6     2     5    1.6831E+01  2.3690E-01   1.6594E+01  0.000E+00  0.000E+00  0.000E+00  1.05331E+03  9.483E-01  1.200E+01  6.000E-02  1.316E+00
   1    3    5     3     1    2.0000E+00  2.8252E-01   1.7175E+00  0.000E+00  0.000E+00  0.000E+00  1.07555E+03  1.909E+00  9.636E+00  7.227E-02  1.955E+00
   1    3    6     3     2    1.7175E+00  2.4905E-01   1.4684E+00  0.000E+00  0.000E+00  0.000E+00  1.07264E+03  1.727E+00  8.909E+00  6.682E-02  1.864E+00
   1    3    7     3     3    1.4684E+00  1.9718E-01   1.2712E+00  0.000E+00  0.000E+00  0.000E+00  1.06987E+03  1.555E+00  8.218E+00  5.547E-02  1.777E+00
   1    4    8     3     4    1.2712E+00  2.2567E-01   1.0456E+00  0.000E+00  0.000E+00  0.000E+00  1.06682E+03  1.364E+00  7.455E+00  6.709E-02  1.682E+00
   1    5    8     3     5    1.0456E+00  1.5790E-01   8.8768E-01  0.000E+00  0.000E+00  0.000E+00  1.06362E+03  1.164E+00  6.655E+00  4.991E-02  1.582E+00
   1    6    8     3     6    8.8768E-01  5.5980E-02   8.3170E-01  0.000E+00  0.000E+00  0.000E+00  1.06158E+03  1.036E+00  6.145E+00  1.844E-02  1.518E+00
   1    5   10     4     1    1.0000E+01  9.0919E-02   9.9091E+00  0.000E+00  0.000E+00  0.000E+00  1.07836E+03  6.368E-01  1.000E+01  2.500E-02  1.212E+00
   1    5    9     4     2    9.9091E+00  1.8158E-01   9.7275E+00  0.000E+00  0.000E+00  0.000E+00  1.07154E+03  6.315E-01  1.000E+01  5.000E-02  1.211E+00
   1    6    8     4     3    9.7275E+00  1.2689E-01   9.6006E+00  0.000E+00  0.000E+00  0.000E+00  1.06381E+03  6.256E-01  1.000E+01  3.500E-02  1.209E+00
   1    6    8     5     1    1.0432E+01  2.2686E-01   1.0205E+01  0.000E+00  0.000E+00  0.000E+00  1.05868E+03  6.790E-01  1.542E+01  6.166E-02  1.226E+00
   1    7    7     5     2    1.0205E+01  2.7894E-01   9.9265E+00  0.000E+00  0.000E+00  0.000E+00  1.05417E+03  6.732E-01  1.519E+01  7.594E-02  1.224E+00
   1    8    7     5     3    9.9265E+00  1.9221E-01   9.7343E+00  0.000E+00  0.000E+00  0.000E+00  1.04992E+03  6.676E-01  1.497E+01  5.241E-02  1.223E+00
   1    8    6     5     4    9.7343E+00  1.3577E-01   9.5985E+00  0.000E+00  0.000E+00  0.000E+00  1.04691E+03  6.637E-01  1.482E+01  3.706E-02  1.221E+00
   1    9    6     6     1    9.5985E+00  2.2097E-01   9.3776E+00  0.000E+00  0.000E+00  0.000E+00  1.04341E+03  6.828E-01  1.200E+01  6.000E-02  1.228E+00
   1   10    7     6     2    9.3776E+00  2.2039E-01   9.1572E+00  0.000E+00  0.000E+00  0.000E+00  1.03885E+03  6.732E-01  1.200E+01  6.000E-02  1.224E+00
   1   11    7     6     3    9.1572E+00  2.1981E-01   8.9374E+00  0.000E+00  0.000E+00  0.000E+00  1.03430E+03  6.636E-01  1.200E+01  6.000E-02  1.221E+00
   1   12    7     6     4    8.9374E+00  2.1923E-01   8.7181E+00  0.000E+00  0.000E+00  0.000E+00  1.02974E+03  6.539E-01  1.200E+01  6.000E-02  1.218E+00
   1   13    7     6     5    8.7181E+00 -1.1459E-01   8.8327E+00  0.000E+00  0.000E+00  0.000E+00  1.02656E+03  6.515E-01  1.200E+01  2.400E-01 -1.591E-01
   1   14    9     7     1    1.5000E+02  1.3361E+00   1.4866E+02  0.000E+00  0.000E+00  0.000E+00  1.03987E+03  2.288E+00  5.529E+01  5.593E-01  7.963E-01
   1   13    8     7     2    1.4866E+02  1.8391E+00   1.4682E+02  0.000E+00  0.000E+00  0.000E+00  1.03478E+03  2.279E+00  5.526E+01  6.148E-01  9.972E-01
   1   13    7     7     3    1.4682E+02  1.4808E+00   1.4534E+02  0.000E+00  0.000E+00  0.000E+00  1.02969E+03  2.270E+00  5.522E+01  5.584E-01  8.839E-01
   1   13    6     8     1    1.5418E+02  8.3248E-01   1.5334E+02  0.000E+00  0.000E+00  0.000E+00  1.02472E+03  2.843E+00  4.123E+01  4.201E-01  6.605E-01
   1   13    5     8     2    1.5334E+02  1.0403E-01   1.5324E+02  0.000E+00  0.000E+00  0.000E+00  1.01846E+03  2.840E+00  4.118E+01  4.196E-01  8.264E-02
   1   13    4     8     3    1.5324E+02 -2.6669E+00   1.5591E+02  0.000E+00  0.000E+00  0.000E+00  1.01222E+03  2.849E+00  4.131E+01  4.209E+00 -2.112E-01
   1   13    3     8     4    1.5591E+02 -3.7472E+00   1.5965E+02  0.000E+00  0.000E+00  0.000E+00  1.00600E+03  2.871E+00  4.163E+01  4.242E+00 -2.945E-01
   1   13    2     8     5    1.5965E+02 -2.6014E+00   1.6226E+02  0.000E+00  0.000E+00  0.000E+00  9.99767E+02  2.892E+00  4.194E+01  4.274E+00 -2.029E-01
   1   13    1     8     6    1.6226E+02 -1.9816E+00   1.6424E+02  0.000E+00  0.000E+00  0.000E+00  9.94783E+02  2.908E+00  4.216E+01  2.578E+00 -2.562E-01
   1    8    6     9     1    1.6594E+01  0.0000E+00   1.6594E+01  0.000E+00  0.000E+00  0.000E+00  1.08182E+03  3.071E+00  4.000E+00  0.000E+00  2.024E+00
   1    8    5     9     2    1.6594E+01  0.0000E+00   1.6594E+01  0.000E+00  0.000E+00  0.000E+00  1.08132E+03  3.071E+00  4.000E+00  0.000E+00  2.024E+00



 UBDSV3 SAVING "           GW ET" ON UNIT  61 AT TIME STEP 2, STRESS PERIOD 5
 UBDSV3 SAVING "    UZF RECHARGE" ON UNIT  61 AT TIME STEP 2, STRESS PERIOD 5
 UBDSV3 SAVING " SURFACE LEAKAGE" ON UNIT  61 AT TIME STEP 2, STRESS PERIOD 5
 UBDSV3 SAVING "       HORT+DUNN" ON UNIT  61 AT TIME STEP 2, STRESS PERIOD 5
 UBDSV3 SAVING "  STORAGE CHANGE" ON UNIT  61 AT TIME STEP 2, STRESS PERIOD 5


UNSATURATED ZONE PACKAGE VOLUMETRIC BUDGET FOR  TIME STEP     2 STRESS PERIOD    5
  ------------------------------------------------------------------------------



     CUMULATIVE VOLUMES      L**3       RATES FOR THIS TIME STEP      L**3/T
     ------------------                 ------------------------

           IN:                                      IN:
           ---                                      ---
        INFILTRATION =     6908593.6097          INFILTRATION =           0.8475

          OUT:                                     OUT:
          ----                                     ----
              UZF ET =     6751560.0193                UZF ET =           0.8475
        UZF RECHARGE =       73224.0000          UZF RECHARGE =       0.0000E+00

            IN - OUT =       83809.5904              IN - OUT =       0.0000E+00

          STORAGE:                                 STORAGE:
          --------                                 --------
      STORAGE CHANGE =       83809.6438        STORAGE CHANGE =       9.3370E-17

 PERCENT DISCREPANCY IS DIFFERENCE BETWEEN IN-OUT MINUS CHANGE IN STORAGE
 DIVIDED BY THE AVERAGE OF IN AND OUT TIMES 100

 PERCENT DISCREPANCY =           0.00     PERCENT DISCREPANCY =           0.00






1
  VOLUMETRIC BUDGET FOR ENTIRE MODEL AT END OF TIME STEP    2, STRESS PERIOD   5
  ------------------------------------------------------------------------------

     CUMULATIVE VOLUMES      L**3       RATES FOR THIS TIME STEP      L**3/T
     ------------------                 ------------------------

           IN:                                      IN:
           ---                                      ---
             STORAGE     =     5318723.5000               STORAGE     =           0.6590
       CONSTANT HEAD     =           0.0000         CONSTANT HEAD     =           0.0000
     HEAD DEP BOUNDS     =     2329046.2500       HEAD DEP BOUNDS     =           0.2858
      STREAM LEAKAGE     =    94844560.0000        STREAM LEAKAGE     =          11.2806
        UZF RECHARGE     =       73223.9531          UZF RECHARGE     =           0.0000
               GW ET     =           0.0000                 GW ET     =           0.0000
     SURFACE LEAKAGE     =           0.0000       SURFACE LEAKAGE     =           0.0000

                TOTAL IN =   102565552.0000                  TOTAL IN =          12.2253

          OUT:                                     OUT:
          ----                                     ----
             STORAGE     =     9565251.0000               STORAGE     =           0.8267
       CONSTANT HEAD     =           0.0000         CONSTANT HEAD     =           0.0000
     HEAD DEP BOUNDS     =     2339276.0000       HEAD DEP BOUNDS     =           0.2870
      STREAM LEAKAGE     =    90662208.0000        STREAM LEAKAGE     =          11.1117
        UZF RECHARGE     =           0.0000          UZF RECHARGE     =           0.0000
               GW ET     =           0.0000                 GW ET     =           0.0000
     SURFACE LEAKAGE     =           0.0000       SURFACE LEAKAGE     =           0.0000

               TOTAL OUT =   102566736.0000                 TOTAL OUT =          12.2254

                IN - OUT =       -1184.0000                  IN - OUT =      -4.4823E-05

     PERCENT DISCREPANCY =          -0.00         PERCENT DISCREPANCY =          -0.00






         TIME SUMMARY AT END OF TIME STEP    2 IN STRESS PERIOD    5
                    SECONDS     MINUTES      HOURS       DAYS        YEARS
                    -----------------------------------------------------------
   TIME STEP LENGTH  87667.      1461.1      24.352      1.0147     2.77799E-03
 STRESS PERIOD TIME 1.75333E+05  2922.2      48.704      2.0293     5.55598E-03
         TOTAL TIME 8.15173E+06 1.35862E+05  2264.4      94.349     0.25831    
1
 
 SOLVING FOR HEAD 
                                                   Max.-Head-Change                         Max.-Flux-Residual
  Residual-Control   Outer-Iter.   Inner-Iter.     Column Row Layer    Maximum-Head-Change  Column Row Layer    Maximum-Flux-Residual          L2-NORM 
          0                 1           2             3    2     1       0.2279951302E-02       3    2    1         0.1188597796E+00      0.2425400684E+00
          0                 2           2             3    2     1      -0.2217772652E-03       3    2    1        -0.1188598966E-01      0.2425395105E-01
          0                 3           1             3    2     1       0.1510220738E-04       3    2    1         0.8320195282E-03      0.1697781475E-02

    ------------------------------------------------
       NWT REQUIRED            3 OUTER ITERATIONS 
       AND A TOTAL OF          5 INNER ITERATIONS.
    ------------------------------------------------

 OUTPUT CONTROL FOR STRESS PERIOD    5   TIME STEP    3
    PRINT BUDGET
    SAVE BUDGET
 UBDSV1 SAVING "         STORAGE" ON UNIT 102 AT TIME STEP 3, STRESS PERIOD 5
 UBDSV2 SAVING "   CONSTANT HEAD" ON UNIT 102 AT TIME STEP 3, STRESS PERIOD 5
 UBDSV1 SAVING "FLOW RIGHT FACE " ON UNIT 102 AT TIME STEP 3, STRESS PERIOD 5
 UBDSV1 SAVING "FLOW FRONT FACE " ON UNIT 102 AT TIME STEP 3, STRESS PERIOD 5

  HEAD DEP BOUNDS   PERIOD    5   STEP     3
 BOUNDARY      1   LAYER   1   ROW    13   COL     1   RATE   -0.286952    
 BOUNDARY      2   LAYER   1   ROW    14   COL     9   RATE    0.285779    



 STREAM LISTING     PERIOD      5   STEP        3

 LAYER ROW COL. STREAM  RCH.  FLOW INTO     FLOW TO   FLOW OUT OF   OVRLND.     DIRECT     STREAM       STREAM     STREAM     STREAM   STREAMBED  STREAMBED
                SEG.NO.  NO.  STRM. RCH.    AQUIFER    STRM. RCH.    RUNOFF     PRECIP       ET          HEAD       DEPTH      WIDTH   CONDCTNC.   GRADIENT

   1    1    1     1     1    2.1000E+01  2.2591E-01   2.0774E+01  0.000E+00  0.000E+00  0.000E+00  1.09416E+03  1.115E+00  1.220E+01  5.490E-02  1.372E+00
   1    2    2     1     2    2.0774E+01  3.4916E-01   2.0425E+01  0.000E+00  0.000E+00  0.000E+00  1.08917E+03  1.110E+00  1.214E+01  8.495E-02  1.370E+00
   1    3    3     1     3    2.0425E+01  2.9709E-01   2.0128E+01  0.000E+00  0.000E+00  0.000E+00  1.08352E+03  1.105E+00  1.206E+01  7.238E-02  1.368E+00
   1    3    4     1     4    2.0128E+01  2.7299E-01   1.9855E+01  0.000E+00  0.000E+00  0.000E+00  1.07851E+03  1.100E+00  1.200E+01  6.659E-02  1.367E+00
   1    4    5     2     1    1.7855E+01  3.1056E-01   1.7544E+01  0.000E+00  0.000E+00  0.000E+00  1.07292E+03  9.816E-01  1.200E+01  7.800E-02  1.327E+00
   1    5    6     2     2    1.7544E+01  2.3834E-01   1.7306E+01  0.000E+00  0.000E+00  0.000E+00  1.06748E+03  9.724E-01  1.200E+01  6.000E-02  1.324E+00
   1    6    6     2     3    1.7306E+01  2.3786E-01   1.7068E+01  0.000E+00  0.000E+00  0.000E+00  1.06276E+03  9.644E-01  1.200E+01  6.000E-02  1.321E+00
   1    7    6     2     4    1.7068E+01  2.3738E-01   1.6831E+01  0.000E+00  0.000E+00  0.000E+00  1.05803E+03  9.564E-01  1.200E+01  6.000E-02  1.319E+00
   1    8    6     2     5    1.6831E+01  2.3690E-01   1.6594E+01  0.000E+00  0.000E+00  0.000E+00  1.05331E+03  9.483E-01  1.200E+01  6.000E-02  1.316E+00
   1    3    5     3     1    2.0000E+00  2.8252E-01   1.7175E+00  0.000E+00  0.000E+00  0.000E+00  1.07555E+03  1.909E+00  9.636E+00  7.227E-02  1.955E+00
   1    3    6     3     2    1.7175E+00  2.4905E-01   1.4684E+00  0.000E+00  0.000E+00  0.000E+00  1.07264E+03  1.727E+00  8.909E+00  6.682E-02  1.864E+00
   1    3    7     3     3    1.4684E+00  1.9718E-01   1.2712E+00  0.000E+00  0.000E+00  0.000E+00  1.06987E+03  1.555E+00  8.218E+00  5.547E-02  1.777E+00
   1    4    8     3     4    1.2712E+00  2.2567E-01   1.0456E+00  0.000E+00  0.000E+00  0.000E+00  1.06682E+03  1.364E+00  7.455E+00  6.709E-02  1.682E+00
   1    5    8     3     5    1.0456E+00  1.5790E-01   8.8768E-01  0.000E+00  0.000E+00  0.000E+00  1.06362E+03  1.164E+00  6.655E+00  4.991E-02  1.582E+00
   1    6    8     3     6    8.8768E-01  5.5980E-02   8.3170E-01  0.000E+00  0.000E+00  0.000E+00  1.06158E+03  1.036E+00  6.145E+00  1.844E-02  1.518E+00
   1    5   10     4     1    1.0000E+01  9.0919E-02   9.9091E+00  0.000E+00  0.000E+00  0.000E+00  1.07836E+03  6.368E-01  1.000E+01  2.500E-02  1.212E+00
   1    5    9     4     2    9.9091E+00  1.8158E-01   9.7275E+00  0.000E+00  0.000E+00  0.000E+00  1.07154E+03  6.315E-01  1.000E+01  5.000E-02  1.211E+00
   1    6    8     4     3    9.7275E+00  1.2689E-01   9.6006E+00  0.000E+00  0.000E+00  0.000E+00  1.06381E+03  6.256E-01  1.000E+01  3.500E-02  1.209E+00
   1    6    8     5     1    1.0432E+01  2.2686E-01   1.0205E+01  0.000E+00  0.000E+00  0.000E+00  1.05868E+03  6.790E-01  1.542E+01  6.166E-02  1.226E+00
   1    7    7     5     2    1.0205E+01  2.7894E-01   9.9265E+00  0.000E+00  0.000E+00  0.000E+00  1.05417E+03  6.732E-01  1.519E+01  7.594E-02  1.224E+00
   1    8    7     5     3    9.9265E+00  1.9221E-01   9.7343E+00  0.000E+00  0.000E+00  0.000E+00  1.04992E+03  6.676E-01  1.497E+01  5.241E-02  1.223E+00
   1    8    6     5     4    9.7343E+00  1.3577E-01   9.5985E+00  0.000E+00  0.000E+00  0.000E+00  1.04691E+03  6.637E-01  1.482E+01  3.706E-02  1.221E+00
   1    9    6     6     1    9.5985E+00  2.2097E-01   9.3776E+00  0.000E+00  0.000E+00  0.000E+00  1.04341E+03  6.828E-01  1.200E+01  6.000E-02  1.228E+00
   1   10    7     6     2    9.3776E+00  2.2039E-01   9.1572E+00  0.000E+00  0.000E+00  0.000E+00  1.03885E+03  6.732E-01  1.200E+01  6.000E-02  1.224E+00
   1   11    7     6     3    9.1572E+00  2.1981E-01   8.9374E+00  0.000E+00  0.000E+00  0.000E+00  1.03430E+03  6.636E-01  1.200E+01  6.000E-02  1.221E+00
   1   12    7     6     4    8.9374E+00  2.1923E-01   8.7181E+00  0.000E+00  0.000E+00  0.000E+00  1.02974E+03  6.539E-01  1.200E+01  6.000E-02  1.218E+00
   1   13    7     6     5    8.7181E+00 -1.1458E-01   8.8327E+00  0.000E+00  0.000E+00  0.000E+00  1.02656E+03  6.515E-01  1.200E+01  2.400E-01 -1.591E-01
   1   14    9     7     1    1.5000E+02  1.3361E+00   1.4866E+02  0.000E+00  0.000E+00  0.000E+00  1.03987E+03  2.288E+00  5.529E+01  5.593E-01  7.963E-01
   1   13    8     7     2    1.4866E+02  1.8391E+00   1.4682E+02  0.000E+00  0.000E+00  0.000E+00  1.03478E+03  2.279E+00  5.526E+01  6.148E-01  9.972E-01
   1   13    7     7     3    1.4682E+02  1.4809E+00   1.4534E+02  0.000E+00  0.000E+00  0.000E+00  1.02969E+03  2.270E+00  5.522E+01  5.584E-01  8.839E-01
   1   13    6     8     1    1.5418E+02  8.3251E-01   1.5334E+02  0.000E+00  0.000E+00  0.000E+00  1.02472E+03  2.843E+00  4.123E+01  4.201E-01  6.606E-01
   1   13    5     8     2    1.5334E+02  1.0405E-01   1.5324E+02  0.000E+00  0.000E+00  0.000E+00  1.01846E+03  2.840E+00  4.118E+01  4.196E-01  8.265E-02
   1   13    4     8     3    1.5324E+02 -2.6669E+00   1.5591E+02  0.000E+00  0.000E+00  0.000E+00  1.01222E+03  2.849E+00  4.131E+01  4.209E+00 -2.112E-01
   1   13    3     8     4    1.5591E+02 -3.7471E+00   1.5965E+02  0.000E+00  0.000E+00  0.000E+00  1.00600E+03  2.871E+00  4.163E+01  4.242E+00 -2.945E-01
   1   13    2     8     5    1.5965E+02 -2.6014E+00   1.6226E+02  0.000E+00  0.000E+00  0.000E+00  9.99767E+02  2.892E+00  4.194E+01  4.274E+00 -2.029E-01
   1   13    1     8     6    1.6226E+02 -1.9816E+00   1.6424E+02  0.000E+00  0.000E+00  0.000E+00  9.94783E+02  2.908E+00  4.216E+01  2.578E+00 -2.562E-01
   1    8    6     9     1    1.6594E+01  0.0000E+00   1.6594E+01  0.000E+00  0.000E+00  0.000E+00  1.08182E+03  3.071E+00  4.000E+00  0.000E+00  2.024E+00
   1    8    5     9     2    1.6594E+01  0.0000E+00   1.6594E+01  0.000E+00  0.000E+00  0.000E+00  1.08132E+03  3.071E+00  4.000E+00  0.000E+00  2.024E+00



 UBDSV3 SAVING "           GW ET" ON UNIT  61 AT TIME STEP 3, STRESS PERIOD 5
 UBDSV3 SAVING "    UZF RECHARGE" ON UNIT  61 AT TIME STEP 3, STRESS PERIOD 5
 UBDSV3 SAVING " SURFACE LEAKAGE" ON UNIT  61 AT TIME STEP 3, STRESS PERIOD 5
 UBDSV3 SAVING "       HORT+DUNN" ON UNIT  61 AT TIME STEP 3, STRESS PERIOD 5
 UBDSV3 SAVING "  STORAGE CHANGE" ON UNIT  61 AT TIME STEP 3, STRESS PERIOD 5


UNSATURATED ZONE PACKAGE VOLUMETRIC BUDGET FOR  TIME STEP     3 STRESS PERIOD    5
  ------------------------------------------------------------------------------



     CUMULATIVE VOLUMES      L**3       RATES FOR THIS TIME STEP      L**3/T
     ------------------                 ------------------------

           IN:                                      IN:
           ---                                      ---
        INFILTRATION =     6982891.1055          INFILTRATION =           0.8475

          OUT:                                     OUT:
          ----                                     ----
              UZF ET =     6825857.5151                UZF ET =           0.8475
        UZF RECHARGE =       73224.0000          UZF RECHARGE =       0.0000E+00

            IN - OUT =       83809.5904              IN - OUT =       0.0000E+00

          STORAGE:                                 STORAGE:
          --------                                 --------
      STORAGE CHANGE =       83809.6438        STORAGE CHANGE =       2.0749E-17

 PERCENT DISCREPANCY IS DIFFERENCE BETWEEN IN-OUT MINUS CHANGE IN STORAGE
 DIVIDED BY THE AVERAGE OF IN AND OUT TIMES 100

 PERCENT DISCREPANCY =           0.00     PERCENT DISCREPANCY =           0.00






1
  VOLUMETRIC BUDGET FOR ENTIRE MODEL AT END OF TIME STEP    3, STRESS PERIOD   5
  ------------------------------------------------------------------------------

     CUMULATIVE VOLUMES      L**3       RATES FOR THIS TIME STEP      L**3/T
     ------------------                 ------------------------

           IN:                                      IN:
           ---                                      ---
             STORAGE     =     5375714.0000               STORAGE     =           0.6501
       CONSTANT HEAD     =           0.0000         CONSTANT HEAD     =           0.0000
     HEAD DEP BOUNDS     =     2354099.5000       HEAD DEP BOUNDS     =           0.2858
      STREAM LEAKAGE     =    95833504.0000        STREAM LEAKAGE     =          11.2807
        UZF RECHARGE     =       73223.9531          UZF RECHARGE     =           0.0000
               GW ET     =           0.0000                 GW ET     =           0.0000
     SURFACE LEAKAGE     =           0.0000       SURFACE LEAKAGE     =           0.0000

                TOTAL IN =   103636544.0000                  TOTAL IN =          12.2166

          OUT:                                     OUT:
          ----                                     ----
             STORAGE     =     9636972.0000               STORAGE     =           0.8181
       CONSTANT HEAD     =           0.0000         CONSTANT HEAD     =           0.0000
     HEAD DEP BOUNDS     =     2364432.2500       HEAD DEP BOUNDS     =           0.2870
      STREAM LEAKAGE     =    91636320.0000        STREAM LEAKAGE     =          11.1116
        UZF RECHARGE     =           0.0000          UZF RECHARGE     =           0.0000
               GW ET     =           0.0000                 GW ET     =           0.0000
     SURFACE LEAKAGE     =           0.0000       SURFACE LEAKAGE     =           0.0000

               TOTAL OUT =   103637728.0000                 TOTAL OUT =          12.2166

                IN - OUT =       -1184.0000                  IN - OUT =      -4.2915E-05

     PERCENT DISCREPANCY =          -0.00         PERCENT DISCREPANCY =          -0.00






         TIME SUMMARY AT END OF TIME STEP    3 IN STRESS PERIOD    5
                    SECONDS     MINUTES      HOURS       DAYS        YEARS
                    -----------------------------------------------------------
   TIME STEP LENGTH  87667.      1461.1      24.352      1.0147     2.77799E-03
 STRESS PERIOD TIME 2.63000E+05  4383.3      73.056      3.0440     8.33397E-03
         TOTAL TIME 8.23939E+06 1.37323E+05  2288.7      95.363     0.26109    
1
 
 SOLVING FOR HEAD 
                                                   Max.-Head-Change                         Max.-Flux-Residual
  Residual-Control   Outer-Iter.   Inner-Iter.     Column Row Layer    Maximum-Head-Change  Column Row Layer    Maximum-Flux-Residual          L2-NORM 
          0                 1           2             3    2     1       0.2269131080E-02       3    2    1         0.1182904134E+00      0.2404530099E+00
          0                 2           2             3    2     1      -0.2207247498E-03       3    2    1        -0.1182905284E-01      0.2404523552E-01
          0                 3           1             3    2     1       0.1503053538E-04       3    2    1         0.8280339652E-03      0.1683159504E-02

    ------------------------------------------------
       NWT REQUIRED            3 OUTER ITERATIONS 
       AND A TOTAL OF          5 INNER ITERATIONS.
    ------------------------------------------------

 OUTPUT CONTROL FOR STRESS PERIOD    5   TIME STEP    4
    PRINT BUDGET
    SAVE BUDGET
 UBDSV1 SAVING "         STORAGE" ON UNIT 102 AT TIME STEP 4, STRESS PERIOD 5
 UBDSV2 SAVING "   CONSTANT HEAD" ON UNIT 102 AT TIME STEP 4, STRESS PERIOD 5
 UBDSV1 SAVING "FLOW RIGHT FACE " ON UNIT 102 AT TIME STEP 4, STRESS PERIOD 5
 UBDSV1 SAVING "FLOW FRONT FACE " ON UNIT 102 AT TIME STEP 4, STRESS PERIOD 5

  HEAD DEP BOUNDS   PERIOD    5   STEP     4
 BOUNDARY      1   LAYER   1   ROW    13   COL     1   RATE   -0.286952    
 BOUNDARY      2   LAYER   1   ROW    14   COL     9   RATE    0.285780    



 STREAM LISTING     PERIOD      5   STEP        4

 LAYER ROW COL. STREAM  RCH.  FLOW INTO     FLOW TO   FLOW OUT OF   OVRLND.     DIRECT     STREAM       STREAM     STREAM     STREAM   STREAMBED  STREAMBED
                SEG.NO.  NO.  STRM. RCH.    AQUIFER    STRM. RCH.    RUNOFF     PRECIP       ET          HEAD       DEPTH      WIDTH   CONDCTNC.   GRADIENT

   1    1    1     1     1    2.1000E+01  2.2591E-01   2.0774E+01  0.000E+00  0.000E+00  0.000E+00  1.09416E+03  1.115E+00  1.220E+01  5.490E-02  1.372E+00
   1    2    2     1     2    2.0774E+01  3.4916E-01   2.0425E+01  0.000E+00  0.000E+00  0.000E+00  1.08917E+03  1.110E+00  1.214E+01  8.495E-02  1.370E+00
   1    3    3     1     3    2.0425E+01  2.9709E-01   2.0128E+01  0.000E+00  0.000E+00  0.000E+00  1.08352E+03  1.105E+00  1.206E+01  7.238E-02  1.368E+00
   1    3    4     1     4    2.0128E+01  2.7299E-01   1.9855E+01  0.000E+00  0.000E+00  0.000E+00  1.07851E+03  1.100E+00  1.200E+01  6.659E-02  1.367E+00
   1    4    5     2     1    1.7855E+01  3.1056E-01   1.7544E+01  0.000E+00  0.000E+00  0.000E+00  1.07292E+03  9.816E-01  1.200E+01  7.800E-02  1.327E+00
   1    5    6     2     2    1.7544E+01  2.3834E-01   1.7306E+01  0.000E+00  0.000E+00  0.000E+00  1.06748E+03  9.724E-01  1.200E+01  6.000E-02  1.324E+00
   1    6    6     2     3    1.7306E+01  2.3786E-01   1.7068E+01  0.000E+00  0.000E+00  0.000E+00  1.06276E+03  9.644E-01  1.200E+01  6.000E-02  1.321E+00
   1    7    6     2     4    1.7068E+01  2.3738E-01   1.6831E+01  0.000E+00  0.000E+00  0.000E+00  1.05803E+03  9.564E-01  1.200E+01  6.000E-02  1.319E+00
   1    8    6     2     5    1.6831E+01  2.3690E-01   1.6594E+01  0.000E+00  0.000E+00  0.000E+00  1.05331E+03  9.483E-01  1.200E+01  6.000E-02  1.316E+00
   1    3    5     3     1    2.0000E+00  2.8252E-01   1.7175E+00  0.000E+00  0.000E+00  0.000E+00  1.07555E+03  1.909E+00  9.636E+00  7.227E-02  1.955E+00
   1    3    6     3     2    1.7175E+00  2.4905E-01   1.4684E+00  0.000E+00  0.000E+00  0.000E+00  1.07264E+03  1.727E+00  8.909E+00  6.682E-02  1.864E+00
   1    3    7     3     3    1.4684E+00  1.9718E-01   1.2712E+00  0.000E+00  0.000E+00  0.000E+00  1.06987E+03  1.555E+00  8.218E+00  5.547E-02  1.777E+00
   1    4    8     3     4    1.2712E+00  2.2567E-01   1.0456E+00  0.000E+00  0.000E+00  0.000E+00  1.06682E+03  1.364E+00  7.455E+00  6.709E-02  1.682E+00
   1    5    8     3     5    1.0456E+00  1.5790E-01   8.8768E-01  0.000E+00  0.000E+00  0.000E+00  1.06362E+03  1.164E+00  6.655E+00  4.991E-02  1.582E+00
   1    6    8     3     6    8.8768E-01  5.5980E-02   8.3170E-01  0.000E+00  0.000E+00  0.000E+00  1.06158E+03  1.036E+00  6.145E+00  1.844E-02  1.518E+00
   1    5   10     4     1    1.0000E+01  9.0919E-02   9.9091E+00  0.000E+00  0.000E+00  0.000E+00  1.07836E+03  6.368E-01  1.000E+01  2.500E-02  1.212E+00
   1    5    9     4     2    9.9091E+00  1.8158E-01   9.7275E+00  0.000E+00  0.000E+00  0.000E+00  1.07154E+03  6.315E-01  1.000E+01  5.000E-02  1.211E+00
   1    6    8     4     3    9.7275E+00  1.2689E-01   9.6006E+00  0.000E+00  0.000E+00  0.000E+00  1.06381E+03  6.256E-01  1.000E+01  3.500E-02  1.209E+00
   1    6    8     5     1    1.0432E+01  2.2686E-01   1.0205E+01  0.000E+00  0.000E+00  0.000E+00  1.05868E+03  6.790E-01  1.542E+01  6.166E-02  1.226E+00
   1    7    7     5     2    1.0205E+01  2.7894E-01   9.9265E+00  0.000E+00  0.000E+00  0.000E+00  1.05417E+03  6.732E-01  1.519E+01  7.594E-02  1.224E+00
   1    8    7     5     3    9.9265E+00  1.9221E-01   9.7343E+00  0.000E+00  0.000E+00  0.000E+00  1.04992E+03  6.676E-01  1.497E+01  5.241E-02  1.223E+00
   1    8    6     5     4    9.7343E+00  1.3577E-01   9.5985E+00  0.000E+00  0.000E+00  0.000E+00  1.04691E+03  6.637E-01  1.482E+01  3.706E-02  1.221E+00
   1    9    6     6     1    9.5985E+00  2.2097E-01   9.3776E+00  0.000E+00  0.000E+00  0.000E+00  1.04341E+03  6.828E-01  1.200E+01  6.000E-02  1.228E+00
   1   10    7     6     2    9.3776E+00  2.2039E-01   9.1572E+00  0.000E+00  0.000E+00  0.000E+00  1.03885E+03  6.732E-01  1.200E+01  6.000E-02  1.224E+00
   1   11    7     6     3    9.1572E+00  2.1981E-01   8.9374E+00  0.000E+00  0.000E+00  0.000E+00  1.03430E+03  6.636E-01  1.200E+01  6.000E-02  1.221E+00
   1   12    7     6     4    8.9374E+00  2.1923E-01   8.7181E+00  0.000E+00  0.000E+00  0.000E+00  1.02974E+03  6.539E-01  1.200E+01  6.000E-02  1.218E+00
   1   13    7     6     5    8.7181E+00 -1.1456E-01   8.8327E+00  0.000E+00  0.000E+00  0.000E+00  1.02656E+03  6.515E-01  1.200E+01  2.400E-01 -1.591E-01
   1   14    9     7     1    1.5000E+02  1.3361E+00   1.4866E+02  0.000E+00  0.000E+00  0.000E+00  1.03987E+03  2.288E+00  5.529E+01  5.593E-01  7.963E-01
   1   13    8     7     2    1.4866E+02  1.8391E+00   1.4682E+02  0.000E+00  0.000E+00  0.000E+00  1.03478E+03  2.279E+00  5.526E+01  6.148E-01  9.972E-01
   1   13    7     7     3    1.4682E+02  1.4809E+00   1.4534E+02  0.000E+00  0.000E+00  0.000E+00  1.02969E+03  2.270E+00  5.522E+01  5.584E-01  8.839E-01
   1   13    6     8     1    1.5418E+02  8.3254E-01   1.5334E+02  0.000E+00  0.000E+00  0.000E+00  1.02472E+03  2.843E+00  4.123E+01  4.201E-01  6.606E-01
   1   13    5     8     2    1.5334E+02  1.0407E-01   1.5324E+02  0.000E+00  0.000E+00  0.000E+00  1.01846E+03  2.840E+00  4.118E+01  4.196E-01  8.267E-02
   1   13    4     8     3    1.5324E+02 -2.6668E+00   1.5591E+02  0.000E+00  0.000E+00  0.000E+00  1.01222E+03  2.849E+00  4.131E+01  4.209E+00 -2.112E-01
   1   13    3     8     4    1.5591E+02 -3.7471E+00   1.5965E+02  0.000E+00  0.000E+00  0.000E+00  1.00600E+03  2.871E+00  4.163E+01  4.242E+00 -2.945E-01
   1   13    2     8     5    1.5965E+02 -2.6014E+00   1.6226E+02  0.000E+00  0.000E+00  0.000E+00  9.99767E+02  2.892E+00  4.194E+01  4.274E+00 -2.029E-01
   1   13    1     8     6    1.6226E+02 -1.9816E+00   1.6424E+02  0.000E+00  0.000E+00  0.000E+00  9.94783E+02  2.908E+00  4.216E+01  2.578E+00 -2.562E-01
   1    8    6     9     1    1.6594E+01  0.0000E+00   1.6594E+01  0.000E+00  0.000E+00  0.000E+00  1.08182E+03  3.071E+00  4.000E+00  0.000E+00  2.024E+00
   1    8    5     9     2    1.6594E+01  0.0000E+00   1.6594E+01  0.000E+00  0.000E+00  0.000E+00  1.08132E+03  3.071E+00  4.000E+00  0.000E+00  2.024E+00



 UBDSV3 SAVING "           GW ET" ON UNIT  61 AT TIME STEP 4, STRESS PERIOD 5
 UBDSV3 SAVING "    UZF RECHARGE" ON UNIT  61 AT TIME STEP 4, STRESS PERIOD 5
 UBDSV3 SAVING " SURFACE LEAKAGE" ON UNIT  61 AT TIME STEP 4, STRESS PERIOD 5
 UBDSV3 SAVING "       HORT+DUNN" ON UNIT  61 AT TIME STEP 4, STRESS PERIOD 5
 UBDSV3 SAVING "  STORAGE CHANGE" ON UNIT  61 AT TIME STEP 4, STRESS PERIOD 5


UNSATURATED ZONE PACKAGE VOLUMETRIC BUDGET FOR  TIME STEP     4 STRESS PERIOD    5
  ------------------------------------------------------------------------------



     CUMULATIVE VOLUMES      L**3       RATES FOR THIS TIME STEP      L**3/T
     ------------------                 ------------------------

           IN:                                      IN:
           ---                                      ---
        INFILTRATION =     7057188.6013          INFILTRATION =           0.8475

          OUT:                                     OUT:
          ----                                     ----
              UZF ET =     6900155.0109                UZF ET =           0.8475
        UZF RECHARGE =       73224.0000          UZF RECHARGE =       0.0000E+00

            IN - OUT =       83809.5904              IN - OUT =       0.0000E+00

          STORAGE:                                 STORAGE:
          --------                                 --------
      STORAGE CHANGE =       83809.6438        STORAGE CHANGE =       2.2824E-16

 PERCENT DISCREPANCY IS DIFFERENCE BETWEEN IN-OUT MINUS CHANGE IN STORAGE
 DIVIDED BY THE AVERAGE OF IN AND OUT TIMES 100

 PERCENT DISCREPANCY =           0.00     PERCENT DISCREPANCY =           0.00






1
  VOLUMETRIC BUDGET FOR ENTIRE MODEL AT END OF TIME STEP    4, STRESS PERIOD   5
  ------------------------------------------------------------------------------

     CUMULATIVE VOLUMES      L**3       RATES FOR THIS TIME STEP      L**3/T
     ------------------                 ------------------------

           IN:                                      IN:
           ---                                      ---
             STORAGE     =     5431964.5000               STORAGE     =           0.6416
       CONSTANT HEAD     =           0.0000         CONSTANT HEAD     =           0.0000
     HEAD DEP BOUNDS     =     2379153.0000       HEAD DEP BOUNDS     =           0.2858
      STREAM LEAKAGE     =    96822456.0000        STREAM LEAKAGE     =          11.2808
        UZF RECHARGE     =       73223.9531          UZF RECHARGE     =           0.0000
               GW ET     =           0.0000                 GW ET     =           0.0000
     SURFACE LEAKAGE     =           0.0000       SURFACE LEAKAGE     =           0.0000

                TOTAL IN =   104706800.0000                  TOTAL IN =          12.2083

          OUT:                                     OUT:
          ----                                     ----
             STORAGE     =     9707980.0000               STORAGE     =           0.8100
       CONSTANT HEAD     =           0.0000         CONSTANT HEAD     =           0.0000
     HEAD DEP BOUNDS     =     2389588.5000       HEAD DEP BOUNDS     =           0.2870
      STREAM LEAKAGE     =    92610416.0000        STREAM LEAKAGE     =          11.1114
        UZF RECHARGE     =           0.0000          UZF RECHARGE     =           0.0000
               GW ET     =           0.0000                 GW ET     =           0.0000
     SURFACE LEAKAGE     =           0.0000       SURFACE LEAKAGE     =           0.0000

               TOTAL OUT =   104707984.0000                 TOTAL OUT =          12.2083

                IN - OUT =       -1184.0000                  IN - OUT =      -4.4823E-05

     PERCENT DISCREPANCY =          -0.00         PERCENT DISCREPANCY =          -0.00






         TIME SUMMARY AT END OF TIME STEP    4 IN STRESS PERIOD    5
                    SECONDS     MINUTES      HOURS       DAYS        YEARS
                    -----------------------------------------------------------
   TIME STEP LENGTH  87667.      1461.1      24.352      1.0147     2.77799E-03
 STRESS PERIOD TIME 3.50667E+05  5844.4      97.407      4.0586     1.11120E-02
         TOTAL TIME 8.32706E+06 1.38784E+05  2313.1      96.378     0.26387    
1
 
 SOLVING FOR HEAD 
                                                   Max.-Head-Change                         Max.-Flux-Residual
  Residual-Control   Outer-Iter.   Inner-Iter.     Column Row Layer    Maximum-Head-Change  Column Row Layer    Maximum-Flux-Residual          L2-NORM 
          0                 1           2             3    2     1       0.2258469560E-02       3    2    1         0.1177293963E+00      0.2385482579E+00
          0                 2           2             3    2     1      -0.2196876718E-03       3    2    1        -0.1177295097E-01      0.2385476511E-01
          0                 3           1             3    2     1       0.1495991373E-04       3    2    1         0.8241068168E-03      0.1669831303E-02

    ------------------------------------------------
       NWT REQUIRED            3 OUTER ITERATIONS 
       AND A TOTAL OF          5 INNER ITERATIONS.
    ------------------------------------------------

 NO OUTPUT CONTROL FOR STRESS PERIOD    5   TIME STEP    5
 
 SOLVING FOR HEAD 
                                                   Max.-Head-Change                         Max.-Flux-Residual
  Residual-Control   Outer-Iter.   Inner-Iter.     Column Row Layer    Maximum-Head-Change  Column Row Layer    Maximum-Flux-Residual          L2-NORM 
          0                 1           2             3    2     1       0.2247965228E-02       3    2    1         0.1171766076E+00      0.2367997322E+00
          0                 2           2             3    2     1      -0.2186658842E-03       3    2    1        -0.1171767192E-01      0.2367990763E-01
          0                 3           1             3    2     1       0.1489033392E-04       3    2    1         0.8202372825E-03      0.1657587616E-02

    ------------------------------------------------
       NWT REQUIRED            3 OUTER ITERATIONS 
       AND A TOTAL OF          5 INNER ITERATIONS.
    ------------------------------------------------

 OUTPUT CONTROL FOR STRESS PERIOD    5   TIME STEP    6
    PRINT BUDGET
    SAVE BUDGET
 UBDSV1 SAVING "         STORAGE" ON UNIT 102 AT TIME STEP 6, STRESS PERIOD 5
 UBDSV2 SAVING "   CONSTANT HEAD" ON UNIT 102 AT TIME STEP 6, STRESS PERIOD 5
 UBDSV1 SAVING "FLOW RIGHT FACE " ON UNIT 102 AT TIME STEP 6, STRESS PERIOD 5
 UBDSV1 SAVING "FLOW FRONT FACE " ON UNIT 102 AT TIME STEP 6, STRESS PERIOD 5

  HEAD DEP BOUNDS   PERIOD    5   STEP     6
 BOUNDARY      1   LAYER   1   ROW    13   COL     1   RATE   -0.286952    
 BOUNDARY      2   LAYER   1   ROW    14   COL     9   RATE    0.285783    



 STREAM LISTING     PERIOD      5   STEP        6

 LAYER ROW COL. STREAM  RCH.  FLOW INTO     FLOW TO   FLOW OUT OF   OVRLND.     DIRECT     STREAM       STREAM     STREAM     STREAM   STREAMBED  STREAMBED
                SEG.NO.  NO.  STRM. RCH.    AQUIFER    STRM. RCH.    RUNOFF     PRECIP       ET          HEAD       DEPTH      WIDTH   CONDCTNC.   GRADIENT

   1    1    1     1     1    2.1000E+01  2.2592E-01   2.0774E+01  0.000E+00  0.000E+00  0.000E+00  1.09416E+03  1.115E+00  1.220E+01  5.490E-02  1.372E+00
   1    2    2     1     2    2.0774E+01  3.4916E-01   2.0425E+01  0.000E+00  0.000E+00  0.000E+00  1.08917E+03  1.110E+00  1.214E+01  8.495E-02  1.370E+00
   1    3    3     1     3    2.0425E+01  2.9709E-01   2.0128E+01  0.000E+00  0.000E+00  0.000E+00  1.08352E+03  1.105E+00  1.206E+01  7.238E-02  1.368E+00
   1    3    4     1     4    2.0128E+01  2.7299E-01   1.9855E+01  0.000E+00  0.000E+00  0.000E+00  1.07851E+03  1.100E+00  1.200E+01  6.659E-02  1.367E+00
   1    4    5     2     1    1.7855E+01  3.1056E-01   1.7544E+01  0.000E+00  0.000E+00  0.000E+00  1.07292E+03  9.816E-01  1.200E+01  7.800E-02  1.327E+00
   1    5    6     2     2    1.7544E+01  2.3834E-01   1.7306E+01  0.000E+00  0.000E+00  0.000E+00  1.06748E+03  9.724E-01  1.200E+01  6.000E-02  1.324E+00
   1    6    6     2     3    1.7306E+01  2.3787E-01   1.7068E+01  0.000E+00  0.000E+00  0.000E+00  1.06276E+03  9.644E-01  1.200E+01  6.000E-02  1.321E+00
   1    7    6     2     4    1.7068E+01  2.3738E-01   1.6831E+01  0.000E+00  0.000E+00  0.000E+00  1.05803E+03  9.564E-01  1.200E+01  6.000E-02  1.319E+00
   1    8    6     2     5    1.6831E+01  2.3690E-01   1.6594E+01  0.000E+00  0.000E+00  0.000E+00  1.05331E+03  9.483E-01  1.200E+01  6.000E-02  1.316E+00
   1    3    5     3     1    2.0000E+00  2.8252E-01   1.7175E+00  0.000E+00  0.000E+00  0.000E+00  1.07555E+03  1.909E+00  9.636E+00  7.227E-02  1.955E+00
   1    3    6     3     2    1.7175E+00  2.4905E-01   1.4684E+00  0.000E+00  0.000E+00  0.000E+00  1.07264E+03  1.727E+00  8.909E+00  6.682E-02  1.864E+00
   1    3    7     3     3    1.4684E+00  1.9718E-01   1.2712E+00  0.000E+00  0.000E+00  0.000E+00  1.06987E+03  1.555E+00  8.218E+00  5.547E-02  1.777E+00
   1    4    8     3     4    1.2712E+00  2.2567E-01   1.0456E+00  0.000E+00  0.000E+00  0.000E+00  1.06682E+03  1.364E+00  7.455E+00  6.709E-02  1.682E+00
   1    5    8     3     5    1.0456E+00  1.5790E-01   8.8768E-01  0.000E+00  0.000E+00  0.000E+00  1.06362E+03  1.164E+00  6.655E+00  4.991E-02  1.582E+00
   1    6    8     3     6    8.8768E-01  5.5980E-02   8.3170E-01  0.000E+00  0.000E+00  0.000E+00  1.06158E+03  1.036E+00  6.145E+00  1.844E-02  1.518E+00
   1    5   10     4     1    1.0000E+01  9.0919E-02   9.9091E+00  0.000E+00  0.000E+00  0.000E+00  1.07836E+03  6.368E-01  1.000E+01  2.500E-02  1.212E+00
   1    5    9     4     2    9.9091E+00  1.8158E-01   9.7275E+00  0.000E+00  0.000E+00  0.000E+00  1.07154E+03  6.315E-01  1.000E+01  5.000E-02  1.211E+00
   1    6    8     4     3    9.7275E+00  1.2689E-01   9.6006E+00  0.000E+00  0.000E+00  0.000E+00  1.06381E+03  6.256E-01  1.000E+01  3.500E-02  1.209E+00
   1    6    8     5     1    1.0432E+01  2.2686E-01   1.0205E+01  0.000E+00  0.000E+00  0.000E+00  1.05868E+03  6.790E-01  1.542E+01  6.166E-02  1.226E+00
   1    7    7     5     2    1.0205E+01  2.7894E-01   9.9265E+00  0.000E+00  0.000E+00  0.000E+00  1.05417E+03  6.732E-01  1.519E+01  7.594E-02  1.224E+00
   1    8    7     5     3    9.9265E+00  1.9221E-01   9.7343E+00  0.000E+00  0.000E+00  0.000E+00  1.04992E+03  6.676E-01  1.497E+01  5.241E-02  1.223E+00
   1    8    6     5     4    9.7343E+00  1.3577E-01   9.5985E+00  0.000E+00  0.000E+00  0.000E+00  1.04691E+03  6.637E-01  1.482E+01  3.706E-02  1.221E+00
   1    9    6     6     1    9.5985E+00  2.2097E-01   9.3776E+00  0.000E+00  0.000E+00  0.000E+00  1.04341E+03  6.828E-01  1.200E+01  6.000E-02  1.228E+00
   1   10    7     6     2    9.3776E+00  2.2039E-01   9.1572E+00  0.000E+00  0.000E+00  0.000E+00  1.03885E+03  6.732E-01  1.200E+01  6.000E-02  1.224E+00
   1   11    7     6     3    9.1572E+00  2.1981E-01   8.9374E+00  0.000E+00  0.000E+00  0.000E+00  1.03430E+03  6.636E-01  1.200E+01  6.000E-02  1.221E+00
   1   12    7     6     4    8.9374E+00  2.1923E-01   8.7181E+00  0.000E+00  0.000E+00  0.000E+00  1.02974E+03  6.539E-01  1.200E+01  6.000E-02  1.218E+00
   1   13    7     6     5    8.7181E+00 -1.1454E-01   8.8327E+00  0.000E+00  0.000E+00  0.000E+00  1.02656E+03  6.515E-01  1.200E+01  2.400E-01 -1.591E-01
   1   14    9     7     1    1.5000E+02  1.3362E+00   1.4866E+02  0.000E+00  0.000E+00  0.000E+00  1.03987E+03  2.288E+00  5.529E+01  5.593E-01  7.963E-01
   1   13    8     7     2    1.4866E+02  1.8392E+00   1.4682E+02  0.000E+00  0.000E+00  0.000E+00  1.03478E+03  2.279E+00  5.526E+01  6.148E-01  9.972E-01
   1   13    7     7     3    1.4682E+02  1.4810E+00   1.4534E+02  0.000E+00  0.000E+00  0.000E+00  1.02969E+03  2.270E+00  5.522E+01  5.584E-01  8.840E-01
   1   13    6     8     1    1.5418E+02  8.3260E-01   1.5334E+02  0.000E+00  0.000E+00  0.000E+00  1.02472E+03  2.843E+00  4.123E+01  4.201E-01  6.606E-01
   1   13    5     8     2    1.5334E+02  1.0412E-01   1.5324E+02  0.000E+00  0.000E+00  0.000E+00  1.01846E+03  2.840E+00  4.118E+01  4.196E-01  8.271E-02
   1   13    4     8     3    1.5324E+02 -2.6666E+00   1.5591E+02  0.000E+00  0.000E+00  0.000E+00  1.01222E+03  2.849E+00  4.131E+01  4.209E+00 -2.112E-01
   1   13    3     8     4    1.5591E+02 -3.7470E+00   1.5965E+02  0.000E+00  0.000E+00  0.000E+00  1.00600E+03  2.871E+00  4.163E+01  4.242E+00 -2.944E-01
   1   13    2     8     5    1.5965E+02 -2.6013E+00   1.6225E+02  0.000E+00  0.000E+00  0.000E+00  9.99767E+02  2.892E+00  4.194E+01  4.274E+00 -2.029E-01
   1   13    1     8     6    1.6225E+02 -1.9816E+00   1.6424E+02  0.000E+00  0.000E+00  0.000E+00  9.94783E+02  2.908E+00  4.216E+01  2.578E+00 -2.562E-01
   1    8    6     9     1    1.6594E+01  0.0000E+00   1.6594E+01  0.000E+00  0.000E+00  0.000E+00  1.08182E+03  3.071E+00  4.000E+00  0.000E+00  2.024E+00
   1    8    5     9     2    1.6594E+01  0.0000E+00   1.6594E+01  0.000E+00  0.000E+00  0.000E+00  1.08132E+03  3.071E+00  4.000E+00  0.000E+00  2.024E+00



 UBDSV3 SAVING "           GW ET" ON UNIT  61 AT TIME STEP 6, STRESS PERIOD 5
 UBDSV3 SAVING "    UZF RECHARGE" ON UNIT  61 AT TIME STEP 6, STRESS PERIOD 5
 UBDSV3 SAVING " SURFACE LEAKAGE" ON UNIT  61 AT TIME STEP 6, STRESS PERIOD 5
 UBDSV3 SAVING "       HORT+DUNN" ON UNIT  61 AT TIME STEP 6, STRESS PERIOD 5
 UBDSV3 SAVING "  STORAGE CHANGE" ON UNIT  61 AT TIME STEP 6, STRESS PERIOD 5


UNSATURATED ZONE PACKAGE VOLUMETRIC BUDGET FOR  TIME STEP     6 STRESS PERIOD    5
  ------------------------------------------------------------------------------



     CUMULATIVE VOLUMES      L**3       RATES FOR THIS TIME STEP      L**3/T
     ------------------                 ------------------------

           IN:                                      IN:
           ---                                      ---
        INFILTRATION =     7205783.5928          INFILTRATION =           0.8475

          OUT:                                     OUT:
          ----                                     ----
              UZF ET =     7048750.0024                UZF ET =           0.8475
        UZF RECHARGE =       73224.0000          UZF RECHARGE =       0.0000E+00

            IN - OUT =       83809.5904              IN - OUT =       0.0000E+00

          STORAGE:                                 STORAGE:
          --------                                 --------
      STORAGE CHANGE =       83809.6438        STORAGE CHANGE =       9.3370E-17

 PERCENT DISCREPANCY IS DIFFERENCE BETWEEN IN-OUT MINUS CHANGE IN STORAGE
 DIVIDED BY THE AVERAGE OF IN AND OUT TIMES 100

 PERCENT DISCREPANCY =           0.00     PERCENT DISCREPANCY =           0.00






1
  VOLUMETRIC BUDGET FOR ENTIRE MODEL AT END OF TIME STEP    6, STRESS PERIOD   5
  ------------------------------------------------------------------------------

     CUMULATIVE VOLUMES      L**3       RATES FOR THIS TIME STEP      L**3/T
     ------------------                 ------------------------

           IN:                                      IN:
           ---                                      ---
             STORAGE     =     5542385.5000               STORAGE     =           0.6259
       CONSTANT HEAD     =           0.0000         CONSTANT HEAD     =           0.0000
     HEAD DEP BOUNDS     =     2429260.0000       HEAD DEP BOUNDS     =           0.2858
      STREAM LEAKAGE     =    98800400.0000        STREAM LEAKAGE     =          11.2811
        UZF RECHARGE     =       73223.9531          UZF RECHARGE     =           0.0000
               GW ET     =           0.0000                 GW ET     =           0.0000
     SURFACE LEAKAGE     =           0.0000       SURFACE LEAKAGE     =           0.0000

                TOTAL IN =   106845272.0000                  TOTAL IN =          12.1928

          OUT:                                     OUT:
          ----                                     ----
             STORAGE     =     9847996.0000               STORAGE     =           0.7949
       CONSTANT HEAD     =           0.0000         CONSTANT HEAD     =           0.0000
     HEAD DEP BOUNDS     =     2439900.7500       HEAD DEP BOUNDS     =           0.2870
      STREAM LEAKAGE     =    94558560.0000        STREAM LEAKAGE     =          11.1110
        UZF RECHARGE     =           0.0000          UZF RECHARGE     =           0.0000
               GW ET     =           0.0000                 GW ET     =           0.0000
     SURFACE LEAKAGE     =           0.0000       SURFACE LEAKAGE     =           0.0000

               TOTAL OUT =   106846456.0000                 TOTAL OUT =          12.1929

                IN - OUT =       -1184.0000                  IN - OUT =      -4.3869E-05

     PERCENT DISCREPANCY =          -0.00         PERCENT DISCREPANCY =          -0.00






         TIME SUMMARY AT END OF TIME STEP    6 IN STRESS PERIOD    5
                    SECONDS     MINUTES      HOURS       DAYS        YEARS
                    -----------------------------------------------------------
   TIME STEP LENGTH  87667.      1461.1      24.352      1.0147     2.77799E-03
 STRESS PERIOD TIME 5.26000E+05  8766.7      146.11      6.0880     1.66679E-02
         TOTAL TIME 8.50239E+06 1.41707E+05  2361.8      98.407     0.26942    
1
 
 SOLVING FOR HEAD 
                                                   Max.-Head-Change                         Max.-Flux-Residual
  Residual-Control   Outer-Iter.   Inner-Iter.     Column Row Layer    Maximum-Head-Change  Column Row Layer    Maximum-Flux-Residual          L2-NORM 
          0                 1           2             3    2     1       0.2237527912E-02       3    2    1         0.1166274552E+00      0.2351981031E+00
          0                 2           2             3    2     1      -0.2176506155E-03       3    2    1        -0.1166275650E-01      0.2351975249E-01
          0                 3           1             3    2     1       0.1482119811E-04       3    2    1         0.8163932115E-03      0.1646373179E-02

    ------------------------------------------------
       NWT REQUIRED            3 OUTER ITERATIONS 
       AND A TOTAL OF          5 INNER ITERATIONS.
    ------------------------------------------------

 OUTPUT CONTROL FOR STRESS PERIOD    5   TIME STEP    7
    PRINT BUDGET
    SAVE BUDGET
 UBDSV1 SAVING "         STORAGE" ON UNIT 102 AT TIME STEP 7, STRESS PERIOD 5
 UBDSV2 SAVING "   CONSTANT HEAD" ON UNIT 102 AT TIME STEP 7, STRESS PERIOD 5
 UBDSV1 SAVING "FLOW RIGHT FACE " ON UNIT 102 AT TIME STEP 7, STRESS PERIOD 5
 UBDSV1 SAVING "FLOW FRONT FACE " ON UNIT 102 AT TIME STEP 7, STRESS PERIOD 5

  HEAD DEP BOUNDS   PERIOD    5   STEP     7
 BOUNDARY      1   LAYER   1   ROW    13   COL     1   RATE   -0.286952    
 BOUNDARY      2   LAYER   1   ROW    14   COL     9   RATE    0.285784    



 STREAM LISTING     PERIOD      5   STEP        7

 LAYER ROW COL. STREAM  RCH.  FLOW INTO     FLOW TO   FLOW OUT OF   OVRLND.     DIRECT     STREAM       STREAM     STREAM     STREAM   STREAMBED  STREAMBED
                SEG.NO.  NO.  STRM. RCH.    AQUIFER    STRM. RCH.    RUNOFF     PRECIP       ET          HEAD       DEPTH      WIDTH   CONDCTNC.   GRADIENT

   1    1    1     1     1    2.1000E+01  2.2592E-01   2.0774E+01  0.000E+00  0.000E+00  0.000E+00  1.09416E+03  1.115E+00  1.220E+01  5.490E-02  1.372E+00
   1    2    2     1     2    2.0774E+01  3.4916E-01   2.0425E+01  0.000E+00  0.000E+00  0.000E+00  1.08917E+03  1.110E+00  1.214E+01  8.495E-02  1.370E+00
   1    3    3     1     3    2.0425E+01  2.9709E-01   2.0128E+01  0.000E+00  0.000E+00  0.000E+00  1.08352E+03  1.105E+00  1.206E+01  7.238E-02  1.368E+00
   1    3    4     1     4    2.0128E+01  2.7299E-01   1.9855E+01  0.000E+00  0.000E+00  0.000E+00  1.07851E+03  1.100E+00  1.200E+01  6.659E-02  1.367E+00
   1    4    5     2     1    1.7855E+01  3.1056E-01   1.7544E+01  0.000E+00  0.000E+00  0.000E+00  1.07292E+03  9.816E-01  1.200E+01  7.800E-02  1.327E+00
   1    5    6     2     2    1.7544E+01  2.3834E-01   1.7306E+01  0.000E+00  0.000E+00  0.000E+00  1.06748E+03  9.724E-01  1.200E+01  6.000E-02  1.324E+00
   1    6    6     2     3    1.7306E+01  2.3787E-01   1.7068E+01  0.000E+00  0.000E+00  0.000E+00  1.06276E+03  9.644E-01  1.200E+01  6.000E-02  1.321E+00
   1    7    6     2     4    1.7068E+01  2.3738E-01   1.6831E+01  0.000E+00  0.000E+00  0.000E+00  1.05803E+03  9.564E-01  1.200E+01  6.000E-02  1.319E+00
   1    8    6     2     5    1.6831E+01  2.3690E-01   1.6594E+01  0.000E+00  0.000E+00  0.000E+00  1.05331E+03  9.483E-01  1.200E+01  6.000E-02  1.316E+00
   1    3    5     3     1    2.0000E+00  2.8252E-01   1.7175E+00  0.000E+00  0.000E+00  0.000E+00  1.07555E+03  1.909E+00  9.636E+00  7.227E-02  1.955E+00
   1    3    6     3     2    1.7175E+00  2.4905E-01   1.4684E+00  0.000E+00  0.000E+00  0.000E+00  1.07264E+03  1.727E+00  8.909E+00  6.682E-02  1.864E+00
   1    3    7     3     3    1.4684E+00  1.9718E-01   1.2712E+00  0.000E+00  0.000E+00  0.000E+00  1.06987E+03  1.555E+00  8.218E+00  5.547E-02  1.777E+00
   1    4    8     3     4    1.2712E+00  2.2567E-01   1.0456E+00  0.000E+00  0.000E+00  0.000E+00  1.06682E+03  1.364E+00  7.455E+00  6.709E-02  1.682E+00
   1    5    8     3     5    1.0456E+00  1.5790E-01   8.8768E-01  0.000E+00  0.000E+00  0.000E+00  1.06362E+03  1.164E+00  6.655E+00  4.991E-02  1.582E+00
   1    6    8     3     6    8.8768E-01  5.5980E-02   8.3170E-01  0.000E+00  0.000E+00  0.000E+00  1.06158E+03  1.036E+00  6.145E+00  1.844E-02  1.518E+00
   1    5   10     4     1    1.0000E+01  9.0919E-02   9.9091E+00  0.000E+00  0.000E+00  0.000E+00  1.07836E+03  6.368E-01  1.000E+01  2.500E-02  1.212E+00
   1    5    9     4     2    9.9091E+00  1.8158E-01   9.7275E+00  0.000E+00  0.000E+00  0.000E+00  1.07154E+03  6.315E-01  1.000E+01  5.000E-02  1.211E+00
   1    6    8     4     3    9.7275E+00  1.2689E-01   9.6006E+00  0.000E+00  0.000E+00  0.000E+00  1.06381E+03  6.256E-01  1.000E+01  3.500E-02  1.209E+00
   1    6    8     5     1    1.0432E+01  2.2686E-01   1.0205E+01  0.000E+00  0.000E+00  0.000E+00  1.05868E+03  6.790E-01  1.542E+01  6.166E-02  1.226E+00
   1    7    7     5     2    1.0205E+01  2.7894E-01   9.9265E+00  0.000E+00  0.000E+00  0.000E+00  1.05417E+03  6.732E-01  1.519E+01  7.594E-02  1.224E+00
   1    8    7     5     3    9.9265E+00  1.9221E-01   9.7343E+00  0.000E+00  0.000E+00  0.000E+00  1.04992E+03  6.676E-01  1.497E+01  5.241E-02  1.223E+00
   1    8    6     5     4    9.7343E+00  1.3577E-01   9.5985E+00  0.000E+00  0.000E+00  0.000E+00  1.04691E+03  6.637E-01  1.482E+01  3.706E-02  1.221E+00
   1    9    6     6     1    9.5985E+00  2.2097E-01   9.3776E+00  0.000E+00  0.000E+00  0.000E+00  1.04341E+03  6.828E-01  1.200E+01  6.000E-02  1.228E+00
   1   10    7     6     2    9.3776E+00  2.2039E-01   9.1572E+00  0.000E+00  0.000E+00  0.000E+00  1.03885E+03  6.732E-01  1.200E+01  6.000E-02  1.224E+00
   1   11    7     6     3    9.1572E+00  2.1981E-01   8.9374E+00  0.000E+00  0.000E+00  0.000E+00  1.03430E+03  6.636E-01  1.200E+01  6.000E-02  1.221E+00
   1   12    7     6     4    8.9374E+00  2.1923E-01   8.7181E+00  0.000E+00  0.000E+00  0.000E+00  1.02974E+03  6.539E-01  1.200E+01  6.000E-02  1.218E+00
   1   13    7     6     5    8.7181E+00 -1.1452E-01   8.8327E+00  0.000E+00  0.000E+00  0.000E+00  1.02656E+03  6.515E-01  1.200E+01  2.400E-01 -1.591E-01
   1   14    9     7     1    1.5000E+02  1.3362E+00   1.4866E+02  0.000E+00  0.000E+00  0.000E+00  1.03987E+03  2.288E+00  5.529E+01  5.593E-01  7.963E-01
   1   13    8     7     2    1.4866E+02  1.8392E+00   1.4682E+02  0.000E+00  0.000E+00  0.000E+00  1.03478E+03  2.279E+00  5.526E+01  6.148E-01  9.972E-01
   1   13    7     7     3    1.4682E+02  1.4810E+00   1.4534E+02  0.000E+00  0.000E+00  0.000E+00  1.02969E+03  2.270E+00  5.522E+01  5.584E-01  8.840E-01
   1   13    6     8     1    1.5418E+02  8.3263E-01   1.5334E+02  0.000E+00  0.000E+00  0.000E+00  1.02472E+03  2.843E+00  4.123E+01  4.201E-01  6.607E-01
   1   13    5     8     2    1.5334E+02  1.0414E-01   1.5324E+02  0.000E+00  0.000E+00  0.000E+00  1.01846E+03  2.840E+00  4.118E+01  4.196E-01  8.273E-02
   1   13    4     8     3    1.5324E+02 -2.6665E+00   1.5591E+02  0.000E+00  0.000E+00  0.000E+00  1.01222E+03  2.849E+00  4.131E+01  4.209E+00 -2.112E-01
   1   13    3     8     4    1.5591E+02 -3.7469E+00   1.5965E+02  0.000E+00  0.000E+00  0.000E+00  1.00600E+03  2.871E+00  4.163E+01  4.242E+00 -2.944E-01
   1   13    2     8     5    1.5965E+02 -2.6013E+00   1.6225E+02  0.000E+00  0.000E+00  0.000E+00  9.99767E+02  2.892E+00  4.194E+01  4.274E+00 -2.029E-01
   1   13    1     8     6    1.6225E+02 -1.9816E+00   1.6424E+02  0.000E+00  0.000E+00  0.000E+00  9.94783E+02  2.908E+00  4.216E+01  2.578E+00 -2.562E-01
   1    8    6     9     1    1.6594E+01  0.0000E+00   1.6594E+01  0.000E+00  0.000E+00  0.000E+00  1.08182E+03  3.071E+00  4.000E+00  0.000E+00  2.024E+00
   1    8    5     9     2    1.6594E+01  0.0000E+00   1.6594E+01  0.000E+00  0.000E+00  0.000E+00  1.08132E+03  3.071E+00  4.000E+00  0.000E+00  2.024E+00



 UBDSV3 SAVING "           GW ET" ON UNIT  61 AT TIME STEP 7, STRESS PERIOD 5
 UBDSV3 SAVING "    UZF RECHARGE" ON UNIT  61 AT TIME STEP 7, STRESS PERIOD 5
 UBDSV3 SAVING " SURFACE LEAKAGE" ON UNIT  61 AT TIME STEP 7, STRESS PERIOD 5
 UBDSV3 SAVING "       HORT+DUNN" ON UNIT  61 AT TIME STEP 7, STRESS PERIOD 5
 UBDSV3 SAVING "  STORAGE CHANGE" ON UNIT  61 AT TIME STEP 7, STRESS PERIOD 5


UNSATURATED ZONE PACKAGE VOLUMETRIC BUDGET FOR  TIME STEP     7 STRESS PERIOD    5
  ------------------------------------------------------------------------------



     CUMULATIVE VOLUMES      L**3       RATES FOR THIS TIME STEP      L**3/T
     ------------------                 ------------------------

           IN:                                      IN:
           ---                                      ---
        INFILTRATION =     7280081.0885          INFILTRATION =           0.8475

          OUT:                                     OUT:
          ----                                     ----
              UZF ET =     7123047.4981                UZF ET =           0.8475
        UZF RECHARGE =       73224.0000          UZF RECHARGE =       0.0000E+00

            IN - OUT =       83809.5904              IN - OUT =       0.0000E+00

          STORAGE:                                 STORAGE:
          --------                                 --------
      STORAGE CHANGE =       83809.6438        STORAGE CHANGE =       2.0749E-17

 PERCENT DISCREPANCY IS DIFFERENCE BETWEEN IN-OUT MINUS CHANGE IN STORAGE
 DIVIDED BY THE AVERAGE OF IN AND OUT TIMES 100

 PERCENT DISCREPANCY =           0.00     PERCENT DISCREPANCY =           0.00






1
  VOLUMETRIC BUDGET FOR ENTIRE MODEL AT END OF TIME STEP    7, STRESS PERIOD   5
  ------------------------------------------------------------------------------

     CUMULATIVE VOLUMES      L**3       RATES FOR THIS TIME STEP      L**3/T
     ------------------                 ------------------------

           IN:                                      IN:
           ---                                      ---
             STORAGE     =     5596620.5000               STORAGE     =           0.6187
       CONSTANT HEAD     =           0.0000         CONSTANT HEAD     =           0.0000
     HEAD DEP BOUNDS     =     2454313.7500       HEAD DEP BOUNDS     =           0.2858
      STREAM LEAKAGE     =    99789392.0000        STREAM LEAKAGE     =          11.2812
        UZF RECHARGE     =       73223.9531          UZF RECHARGE     =           0.0000
               GW ET     =           0.0000                 GW ET     =           0.0000
     SURFACE LEAKAGE     =           0.0000       SURFACE LEAKAGE     =           0.0000

                TOTAL IN =   107913552.0000                  TOTAL IN =          12.1857

          OUT:                                     OUT:
          ----                                     ----
             STORAGE     =     9917069.0000               STORAGE     =           0.7879
       CONSTANT HEAD     =           0.0000         CONSTANT HEAD     =           0.0000
     HEAD DEP BOUNDS     =     2465056.7500       HEAD DEP BOUNDS     =           0.2870
      STREAM LEAKAGE     =    95532616.0000        STREAM LEAKAGE     =          11.1109
        UZF RECHARGE     =           0.0000          UZF RECHARGE     =           0.0000
               GW ET     =           0.0000                 GW ET     =           0.0000
     SURFACE LEAKAGE     =           0.0000       SURFACE LEAKAGE     =           0.0000

               TOTAL OUT =   107914744.0000                 TOTAL OUT =          12.1857

                IN - OUT =       -1192.0000                  IN - OUT =      -4.4823E-05

     PERCENT DISCREPANCY =          -0.00         PERCENT DISCREPANCY =          -0.00






         TIME SUMMARY AT END OF TIME STEP    7 IN STRESS PERIOD    5
                    SECONDS     MINUTES      HOURS       DAYS        YEARS
                    -----------------------------------------------------------
   TIME STEP LENGTH  87667.      1461.1      24.352      1.0147     2.77799E-03
 STRESS PERIOD TIME 6.13667E+05  10228.      170.46      7.1026     1.94459E-02
         TOTAL TIME 8.59006E+06 1.43168E+05  2386.1      99.422     0.27220    
1
 
 SOLVING FOR HEAD 
                                                   Max.-Head-Change                         Max.-Flux-Residual
  Residual-Control   Outer-Iter.   Inner-Iter.     Column Row Layer    Maximum-Head-Change  Column Row Layer    Maximum-Flux-Residual          L2-NORM 
          0                 1           2             3    2     1       0.2227329261E-02       3    2    1         0.1160908052E+00      0.2337229302E+00
          0                 2           2             3    2     1      -0.2166585618E-03       3    2    1        -0.1160909130E-01      0.2337222262E-01
          0                 3           1             3    2     1       0.1475364303E-04       3    2    1         0.8126366553E-03      0.1636054589E-02

    ------------------------------------------------
       NWT REQUIRED            3 OUTER ITERATIONS 
       AND A TOTAL OF          5 INNER ITERATIONS.
    ------------------------------------------------

 OUTPUT CONTROL FOR STRESS PERIOD    5   TIME STEP    8
    PRINT BUDGET
    SAVE BUDGET
 UBDSV1 SAVING "         STORAGE" ON UNIT 102 AT TIME STEP 8, STRESS PERIOD 5
 UBDSV2 SAVING "   CONSTANT HEAD" ON UNIT 102 AT TIME STEP 8, STRESS PERIOD 5
 UBDSV1 SAVING "FLOW RIGHT FACE " ON UNIT 102 AT TIME STEP 8, STRESS PERIOD 5
 UBDSV1 SAVING "FLOW FRONT FACE " ON UNIT 102 AT TIME STEP 8, STRESS PERIOD 5

  HEAD DEP BOUNDS   PERIOD    5   STEP     8
 BOUNDARY      1   LAYER   1   ROW    13   COL     1   RATE   -0.286952    
 BOUNDARY      2   LAYER   1   ROW    14   COL     9   RATE    0.285785    



 STREAM LISTING     PERIOD      5   STEP        8

 LAYER ROW COL. STREAM  RCH.  FLOW INTO     FLOW TO   FLOW OUT OF   OVRLND.     DIRECT     STREAM       STREAM     STREAM     STREAM   STREAMBED  STREAMBED
                SEG.NO.  NO.  STRM. RCH.    AQUIFER    STRM. RCH.    RUNOFF     PRECIP       ET          HEAD       DEPTH      WIDTH   CONDCTNC.   GRADIENT

   1    1    1     1     1    2.1000E+01  2.2592E-01   2.0774E+01  0.000E+00  0.000E+00  0.000E+00  1.09416E+03  1.115E+00  1.220E+01  5.490E-02  1.372E+00
   1    2    2     1     2    2.0774E+01  3.4916E-01   2.0425E+01  0.000E+00  0.000E+00  0.000E+00  1.08917E+03  1.110E+00  1.214E+01  8.495E-02  1.370E+00
   1    3    3     1     3    2.0425E+01  2.9709E-01   2.0128E+01  0.000E+00  0.000E+00  0.000E+00  1.08352E+03  1.105E+00  1.206E+01  7.238E-02  1.368E+00
   1    3    4     1     4    2.0128E+01  2.7299E-01   1.9855E+01  0.000E+00  0.000E+00  0.000E+00  1.07851E+03  1.100E+00  1.200E+01  6.659E-02  1.367E+00
   1    4    5     2     1    1.7855E+01  3.1056E-01   1.7544E+01  0.000E+00  0.000E+00  0.000E+00  1.07292E+03  9.816E-01  1.200E+01  7.800E-02  1.327E+00
   1    5    6     2     2    1.7544E+01  2.3834E-01   1.7306E+01  0.000E+00  0.000E+00  0.000E+00  1.06748E+03  9.724E-01  1.200E+01  6.000E-02  1.324E+00
   1    6    6     2     3    1.7306E+01  2.3787E-01   1.7068E+01  0.000E+00  0.000E+00  0.000E+00  1.06276E+03  9.644E-01  1.200E+01  6.000E-02  1.321E+00
   1    7    6     2     4    1.7068E+01  2.3738E-01   1.6831E+01  0.000E+00  0.000E+00  0.000E+00  1.05803E+03  9.564E-01  1.200E+01  6.000E-02  1.319E+00
   1    8    6     2     5    1.6831E+01  2.3690E-01   1.6594E+01  0.000E+00  0.000E+00  0.000E+00  1.05331E+03  9.483E-01  1.200E+01  6.000E-02  1.316E+00
   1    3    5     3     1    2.0000E+00  2.8252E-01   1.7175E+00  0.000E+00  0.000E+00  0.000E+00  1.07555E+03  1.909E+00  9.636E+00  7.227E-02  1.955E+00
   1    3    6     3     2    1.7175E+00  2.4905E-01   1.4684E+00  0.000E+00  0.000E+00  0.000E+00  1.07264E+03  1.727E+00  8.909E+00  6.682E-02  1.864E+00
   1    3    7     3     3    1.4684E+00  1.9718E-01   1.2712E+00  0.000E+00  0.000E+00  0.000E+00  1.06987E+03  1.555E+00  8.218E+00  5.547E-02  1.777E+00
   1    4    8     3     4    1.2712E+00  2.2567E-01   1.0456E+00  0.000E+00  0.000E+00  0.000E+00  1.06682E+03  1.364E+00  7.455E+00  6.709E-02  1.682E+00
   1    5    8     3     5    1.0456E+00  1.5790E-01   8.8768E-01  0.000E+00  0.000E+00  0.000E+00  1.06362E+03  1.164E+00  6.655E+00  4.991E-02  1.582E+00
   1    6    8     3     6    8.8768E-01  5.5980E-02   8.3170E-01  0.000E+00  0.000E+00  0.000E+00  1.06158E+03  1.036E+00  6.145E+00  1.844E-02  1.518E+00
   1    5   10     4     1    1.0000E+01  9.0919E-02   9.9091E+00  0.000E+00  0.000E+00  0.000E+00  1.07836E+03  6.368E-01  1.000E+01  2.500E-02  1.212E+00
   1    5    9     4     2    9.9091E+00  1.8158E-01   9.7275E+00  0.000E+00  0.000E+00  0.000E+00  1.07154E+03  6.315E-01  1.000E+01  5.000E-02  1.211E+00
   1    6    8     4     3    9.7275E+00  1.2689E-01   9.6006E+00  0.000E+00  0.000E+00  0.000E+00  1.06381E+03  6.256E-01  1.000E+01  3.500E-02  1.209E+00
   1    6    8     5     1    1.0432E+01  2.2686E-01   1.0205E+01  0.000E+00  0.000E+00  0.000E+00  1.05868E+03  6.790E-01  1.542E+01  6.166E-02  1.226E+00
   1    7    7     5     2    1.0205E+01  2.7894E-01   9.9265E+00  0.000E+00  0.000E+00  0.000E+00  1.05417E+03  6.732E-01  1.519E+01  7.594E-02  1.224E+00
   1    8    7     5     3    9.9265E+00  1.9221E-01   9.7343E+00  0.000E+00  0.000E+00  0.000E+00  1.04992E+03  6.676E-01  1.497E+01  5.241E-02  1.223E+00
   1    8    6     5     4    9.7343E+00  1.3577E-01   9.5985E+00  0.000E+00  0.000E+00  0.000E+00  1.04691E+03  6.637E-01  1.482E+01  3.706E-02  1.221E+00
   1    9    6     6     1    9.5985E+00  2.2097E-01   9.3776E+00  0.000E+00  0.000E+00  0.000E+00  1.04341E+03  6.828E-01  1.200E+01  6.000E-02  1.228E+00
   1   10    7     6     2    9.3776E+00  2.2039E-01   9.1572E+00  0.000E+00  0.000E+00  0.000E+00  1.03885E+03  6.732E-01  1.200E+01  6.000E-02  1.224E+00
   1   11    7     6     3    9.1572E+00  2.1981E-01   8.9374E+00  0.000E+00  0.000E+00  0.000E+00  1.03430E+03  6.636E-01  1.200E+01  6.000E-02  1.221E+00
   1   12    7     6     4    8.9374E+00  2.1923E-01   8.7181E+00  0.000E+00  0.000E+00  0.000E+00  1.02974E+03  6.539E-01  1.200E+01  6.000E-02  1.218E+00
   1   13    7     6     5    8.7181E+00 -1.1451E-01   8.8326E+00  0.000E+00  0.000E+00  0.000E+00  1.02656E+03  6.515E-01  1.200E+01  2.400E-01 -1.590E-01
   1   14    9     7     1    1.5000E+02  1.3362E+00   1.4866E+02  0.000E+00  0.000E+00  0.000E+00  1.03987E+03  2.288E+00  5.529E+01  5.593E-01  7.964E-01
   1   13    8     7     2    1.4866E+02  1.8392E+00   1.4682E+02  0.000E+00  0.000E+00  0.000E+00  1.03478E+03  2.279E+00  5.526E+01  6.148E-01  9.972E-01
   1   13    7     7     3    1.4682E+02  1.4810E+00   1.4534E+02  0.000E+00  0.000E+00  0.000E+00  1.02969E+03  2.270E+00  5.522E+01  5.584E-01  8.840E-01
   1   13    6     8     1    1.5418E+02  8.3266E-01   1.5334E+02  0.000E+00  0.000E+00  0.000E+00  1.02472E+03  2.843E+00  4.123E+01  4.201E-01  6.607E-01
   1   13    5     8     2    1.5334E+02  1.0416E-01   1.5324E+02  0.000E+00  0.000E+00  0.000E+00  1.01846E+03  2.840E+00  4.118E+01  4.196E-01  8.275E-02
   1   13    4     8     3    1.5324E+02 -2.6665E+00   1.5591E+02  0.000E+00  0.000E+00  0.000E+00  1.01222E+03  2.849E+00  4.131E+01  4.209E+00 -2.112E-01
   1   13    3     8     4    1.5591E+02 -3.7468E+00   1.5965E+02  0.000E+00  0.000E+00  0.000E+00  1.00600E+03  2.871E+00  4.163E+01  4.242E+00 -2.944E-01
   1   13    2     8     5    1.5965E+02 -2.6013E+00   1.6225E+02  0.000E+00  0.000E+00  0.000E+00  9.99767E+02  2.892E+00  4.194E+01  4.274E+00 -2.029E-01
   1   13    1     8     6    1.6225E+02 -1.9816E+00   1.6424E+02  0.000E+00  0.000E+00  0.000E+00  9.94783E+02  2.908E+00  4.216E+01  2.578E+00 -2.562E-01
   1    8    6     9     1    1.6594E+01  0.0000E+00   1.6594E+01  0.000E+00  0.000E+00  0.000E+00  1.08182E+03  3.071E+00  4.000E+00  0.000E+00  2.024E+00
   1    8    5     9     2    1.6594E+01  0.0000E+00   1.6594E+01  0.000E+00  0.000E+00  0.000E+00  1.08132E+03  3.071E+00  4.000E+00  0.000E+00  2.024E+00



 UBDSV3 SAVING "           GW ET" ON UNIT  61 AT TIME STEP 8, STRESS PERIOD 5
 UBDSV3 SAVING "    UZF RECHARGE" ON UNIT  61 AT TIME STEP 8, STRESS PERIOD 5
 UBDSV3 SAVING " SURFACE LEAKAGE" ON UNIT  61 AT TIME STEP 8, STRESS PERIOD 5
 UBDSV3 SAVING "       HORT+DUNN" ON UNIT  61 AT TIME STEP 8, STRESS PERIOD 5
 UBDSV3 SAVING "  STORAGE CHANGE" ON UNIT  61 AT TIME STEP 8, STRESS PERIOD 5


UNSATURATED ZONE PACKAGE VOLUMETRIC BUDGET FOR  TIME STEP     8 STRESS PERIOD    5
  ------------------------------------------------------------------------------



     CUMULATIVE VOLUMES      L**3       RATES FOR THIS TIME STEP      L**3/T
     ------------------                 ------------------------

           IN:                                      IN:
           ---                                      ---
        INFILTRATION =     7354378.5843          INFILTRATION =           0.8475

          OUT:                                     OUT:
          ----                                     ----
              UZF ET =     7197344.9939                UZF ET =           0.8475
        UZF RECHARGE =       73224.0000          UZF RECHARGE =       0.0000E+00

            IN - OUT =       83809.5904              IN - OUT =       0.0000E+00

          STORAGE:                                 STORAGE:
          --------                                 --------
      STORAGE CHANGE =       83809.6438        STORAGE CHANGE =       2.0749E-16

 PERCENT DISCREPANCY IS DIFFERENCE BETWEEN IN-OUT MINUS CHANGE IN STORAGE
 DIVIDED BY THE AVERAGE OF IN AND OUT TIMES 100

 PERCENT DISCREPANCY =           0.00     PERCENT DISCREPANCY =           0.00






1
  VOLUMETRIC BUDGET FOR ENTIRE MODEL AT END OF TIME STEP    8, STRESS PERIOD   5
  ------------------------------------------------------------------------------

     CUMULATIVE VOLUMES      L**3       RATES FOR THIS TIME STEP      L**3/T
     ------------------                 ------------------------

           IN:                                      IN:
           ---                                      ---
             STORAGE     =     5650336.0000               STORAGE     =           0.6127
       CONSTANT HEAD     =           0.0000         CONSTANT HEAD     =           0.0000
     HEAD DEP BOUNDS     =     2479367.5000       HEAD DEP BOUNDS     =           0.2858
      STREAM LEAKAGE     =   100778392.0000        STREAM LEAKAGE     =          11.2814
        UZF RECHARGE     =       73223.9531          UZF RECHARGE     =           0.0000
               GW ET     =           0.0000                 GW ET     =           0.0000
     SURFACE LEAKAGE     =           0.0000       SURFACE LEAKAGE     =           0.0000

                TOTAL IN =   108981320.0000                  TOTAL IN =          12.1799

          OUT:                                     OUT:
          ----                                     ----
             STORAGE     =     9985649.0000               STORAGE     =           0.7823
       CONSTANT HEAD     =           0.0000         CONSTANT HEAD     =           0.0000
     HEAD DEP BOUNDS     =     2490212.7500       HEAD DEP BOUNDS     =           0.2870
      STREAM LEAKAGE     =    96506656.0000        STREAM LEAKAGE     =          11.1107
        UZF RECHARGE     =           0.0000          UZF RECHARGE     =           0.0000
               GW ET     =           0.0000                 GW ET     =           0.0000
     SURFACE LEAKAGE     =           0.0000       SURFACE LEAKAGE     =           0.0000

               TOTAL OUT =   108982520.0000                 TOTAL OUT =          12.1799

                IN - OUT =       -1200.0000                  IN - OUT =      -4.4823E-05

     PERCENT DISCREPANCY =          -0.00         PERCENT DISCREPANCY =          -0.00






         TIME SUMMARY AT END OF TIME STEP    8 IN STRESS PERIOD    5
                    SECONDS     MINUTES      HOURS       DAYS        YEARS
                    -----------------------------------------------------------
   TIME STEP LENGTH  87667.      1461.1      24.352      1.0147     2.77799E-03
 STRESS PERIOD TIME 7.01333E+05  11689.      194.81      8.1173     2.22239E-02
         TOTAL TIME 8.67773E+06 1.44629E+05  2410.5      100.44     0.27498    
1
 
 SOLVING FOR HEAD 
                                                   Max.-Head-Change                         Max.-Flux-Residual
  Residual-Control   Outer-Iter.   Inner-Iter.     Column Row Layer    Maximum-Head-Change  Column Row Layer    Maximum-Flux-Residual          L2-NORM 
          0                 1           2             3    2     1       0.2217278065E-02       3    2    1         0.1155620159E+00      0.2323647094E+00
          0                 2           2             3    2     1      -0.2156808519E-03       3    2    1        -0.1155621221E-01      0.2323641152E-01
          0                 3           1             3    2     1       0.1468706448E-04       3    2    1         0.8089351021E-03      0.1626545708E-02

    ------------------------------------------------
       NWT REQUIRED            3 OUTER ITERATIONS 
       AND A TOTAL OF          5 INNER ITERATIONS.
    ------------------------------------------------

 OUTPUT CONTROL FOR STRESS PERIOD    5   TIME STEP    9
    PRINT BUDGET
    SAVE BUDGET
 UBDSV1 SAVING "         STORAGE" ON UNIT 102 AT TIME STEP 9, STRESS PERIOD 5
 UBDSV2 SAVING "   CONSTANT HEAD" ON UNIT 102 AT TIME STEP 9, STRESS PERIOD 5
 UBDSV1 SAVING "FLOW RIGHT FACE " ON UNIT 102 AT TIME STEP 9, STRESS PERIOD 5
 UBDSV1 SAVING "FLOW FRONT FACE " ON UNIT 102 AT TIME STEP 9, STRESS PERIOD 5

  HEAD DEP BOUNDS   PERIOD    5   STEP     9
 BOUNDARY      1   LAYER   1   ROW    13   COL     1   RATE   -0.286951    
 BOUNDARY      2   LAYER   1   ROW    14   COL     9   RATE    0.285787    



 STREAM LISTING     PERIOD      5   STEP        9

 LAYER ROW COL. STREAM  RCH.  FLOW INTO     FLOW TO   FLOW OUT OF   OVRLND.     DIRECT     STREAM       STREAM     STREAM     STREAM   STREAMBED  STREAMBED
                SEG.NO.  NO.  STRM. RCH.    AQUIFER    STRM. RCH.    RUNOFF     PRECIP       ET          HEAD       DEPTH      WIDTH   CONDCTNC.   GRADIENT

   1    1    1     1     1    2.1000E+01  2.2592E-01   2.0774E+01  0.000E+00  0.000E+00  0.000E+00  1.09416E+03  1.115E+00  1.220E+01  5.490E-02  1.372E+00
   1    2    2     1     2    2.0774E+01  3.4916E-01   2.0425E+01  0.000E+00  0.000E+00  0.000E+00  1.08917E+03  1.110E+00  1.214E+01  8.495E-02  1.370E+00
   1    3    3     1     3    2.0425E+01  2.9709E-01   2.0128E+01  0.000E+00  0.000E+00  0.000E+00  1.08352E+03  1.105E+00  1.206E+01  7.238E-02  1.368E+00
   1    3    4     1     4    2.0128E+01  2.7299E-01   1.9855E+01  0.000E+00  0.000E+00  0.000E+00  1.07851E+03  1.100E+00  1.200E+01  6.659E-02  1.367E+00
   1    4    5     2     1    1.7855E+01  3.1056E-01   1.7544E+01  0.000E+00  0.000E+00  0.000E+00  1.07292E+03  9.816E-01  1.200E+01  7.800E-02  1.327E+00
   1    5    6     2     2    1.7544E+01  2.3834E-01   1.7306E+01  0.000E+00  0.000E+00  0.000E+00  1.06748E+03  9.724E-01  1.200E+01  6.000E-02  1.324E+00
   1    6    6     2     3    1.7306E+01  2.3787E-01   1.7068E+01  0.000E+00  0.000E+00  0.000E+00  1.06276E+03  9.644E-01  1.200E+01  6.000E-02  1.321E+00
   1    7    6     2     4    1.7068E+01  2.3738E-01   1.6831E+01  0.000E+00  0.000E+00  0.000E+00  1.05803E+03  9.564E-01  1.200E+01  6.000E-02  1.319E+00
   1    8    6     2     5    1.6831E+01  2.3690E-01   1.6594E+01  0.000E+00  0.000E+00  0.000E+00  1.05331E+03  9.483E-01  1.200E+01  6.000E-02  1.316E+00
   1    3    5     3     1    2.0000E+00  2.8252E-01   1.7175E+00  0.000E+00  0.000E+00  0.000E+00  1.07555E+03  1.909E+00  9.636E+00  7.227E-02  1.955E+00
   1    3    6     3     2    1.7175E+00  2.4905E-01   1.4684E+00  0.000E+00  0.000E+00  0.000E+00  1.07264E+03  1.727E+00  8.909E+00  6.682E-02  1.864E+00
   1    3    7     3     3    1.4684E+00  1.9718E-01   1.2712E+00  0.000E+00  0.000E+00  0.000E+00  1.06987E+03  1.555E+00  8.218E+00  5.547E-02  1.777E+00
   1    4    8     3     4    1.2712E+00  2.2567E-01   1.0456E+00  0.000E+00  0.000E+00  0.000E+00  1.06682E+03  1.364E+00  7.455E+00  6.709E-02  1.682E+00
   1    5    8     3     5    1.0456E+00  1.5790E-01   8.8768E-01  0.000E+00  0.000E+00  0.000E+00  1.06362E+03  1.164E+00  6.655E+00  4.991E-02  1.582E+00
   1    6    8     3     6    8.8768E-01  5.5980E-02   8.3170E-01  0.000E+00  0.000E+00  0.000E+00  1.06158E+03  1.036E+00  6.145E+00  1.844E-02  1.518E+00
   1    5   10     4     1    1.0000E+01  9.0919E-02   9.9091E+00  0.000E+00  0.000E+00  0.000E+00  1.07836E+03  6.368E-01  1.000E+01  2.500E-02  1.212E+00
   1    5    9     4     2    9.9091E+00  1.8158E-01   9.7275E+00  0.000E+00  0.000E+00  0.000E+00  1.07154E+03  6.315E-01  1.000E+01  5.000E-02  1.211E+00
   1    6    8     4     3    9.7275E+00  1.2689E-01   9.6006E+00  0.000E+00  0.000E+00  0.000E+00  1.06381E+03  6.256E-01  1.000E+01  3.500E-02  1.209E+00
   1    6    8     5     1    1.0432E+01  2.2686E-01   1.0205E+01  0.000E+00  0.000E+00  0.000E+00  1.05868E+03  6.790E-01  1.542E+01  6.166E-02  1.226E+00
   1    7    7     5     2    1.0205E+01  2.7894E-01   9.9265E+00  0.000E+00  0.000E+00  0.000E+00  1.05417E+03  6.732E-01  1.519E+01  7.594E-02  1.224E+00
   1    8    7     5     3    9.9265E+00  1.9221E-01   9.7343E+00  0.000E+00  0.000E+00  0.000E+00  1.04992E+03  6.676E-01  1.497E+01  5.241E-02  1.223E+00
   1    8    6     5     4    9.7343E+00  1.3577E-01   9.5985E+00  0.000E+00  0.000E+00  0.000E+00  1.04691E+03  6.637E-01  1.482E+01  3.706E-02  1.221E+00
   1    9    6     6     1    9.5985E+00  2.2097E-01   9.3776E+00  0.000E+00  0.000E+00  0.000E+00  1.04341E+03  6.828E-01  1.200E+01  6.000E-02  1.228E+00
   1   10    7     6     2    9.3776E+00  2.2039E-01   9.1572E+00  0.000E+00  0.000E+00  0.000E+00  1.03885E+03  6.732E-01  1.200E+01  6.000E-02  1.224E+00
   1   11    7     6     3    9.1572E+00  2.1981E-01   8.9374E+00  0.000E+00  0.000E+00  0.000E+00  1.03430E+03  6.636E-01  1.200E+01  6.000E-02  1.221E+00
   1   12    7     6     4    8.9374E+00  2.1923E-01   8.7181E+00  0.000E+00  0.000E+00  0.000E+00  1.02974E+03  6.539E-01  1.200E+01  6.000E-02  1.218E+00
   1   13    7     6     5    8.7181E+00 -1.1450E-01   8.8326E+00  0.000E+00  0.000E+00  0.000E+00  1.02656E+03  6.515E-01  1.200E+01  2.400E-01 -1.590E-01
   1   14    9     7     1    1.5000E+02  1.3362E+00   1.4866E+02  0.000E+00  0.000E+00  0.000E+00  1.03987E+03  2.288E+00  5.529E+01  5.593E-01  7.964E-01
   1   13    8     7     2    1.4866E+02  1.8393E+00   1.4682E+02  0.000E+00  0.000E+00  0.000E+00  1.03478E+03  2.279E+00  5.526E+01  6.148E-01  9.973E-01
   1   13    7     7     3    1.4682E+02  1.4810E+00   1.4534E+02  0.000E+00  0.000E+00  0.000E+00  1.02969E+03  2.270E+00  5.522E+01  5.584E-01  8.840E-01
   1   13    6     8     1    1.5418E+02  8.3269E-01   1.5334E+02  0.000E+00  0.000E+00  0.000E+00  1.02472E+03  2.843E+00  4.123E+01  4.201E-01  6.607E-01
   1   13    5     8     2    1.5334E+02  1.0419E-01   1.5324E+02  0.000E+00  0.000E+00  0.000E+00  1.01846E+03  2.840E+00  4.118E+01  4.196E-01  8.276E-02
   1   13    4     8     3    1.5324E+02 -2.6664E+00   1.5591E+02  0.000E+00  0.000E+00  0.000E+00  1.01222E+03  2.849E+00  4.131E+01  4.209E+00 -2.111E-01
   1   13    3     8     4    1.5591E+02 -3.7468E+00   1.5965E+02  0.000E+00  0.000E+00  0.000E+00  1.00600E+03  2.871E+00  4.163E+01  4.242E+00 -2.944E-01
   1   13    2     8     5    1.5965E+02 -2.6013E+00   1.6225E+02  0.000E+00  0.000E+00  0.000E+00  9.99767E+02  2.892E+00  4.194E+01  4.274E+00 -2.029E-01
   1   13    1     8     6    1.6225E+02 -1.9816E+00   1.6424E+02  0.000E+00  0.000E+00  0.000E+00  9.94783E+02  2.908E+00  4.216E+01  2.578E+00 -2.562E-01
   1    8    6     9     1    1.6594E+01  0.0000E+00   1.6594E+01  0.000E+00  0.000E+00  0.000E+00  1.08182E+03  3.071E+00  4.000E+00  0.000E+00  2.024E+00
   1    8    5     9     2    1.6594E+01  0.0000E+00   1.6594E+01  0.000E+00  0.000E+00  0.000E+00  1.08132E+03  3.071E+00  4.000E+00  0.000E+00  2.024E+00



 UBDSV3 SAVING "           GW ET" ON UNIT  61 AT TIME STEP 9, STRESS PERIOD 5
 UBDSV3 SAVING "    UZF RECHARGE" ON UNIT  61 AT TIME STEP 9, STRESS PERIOD 5
 UBDSV3 SAVING " SURFACE LEAKAGE" ON UNIT  61 AT TIME STEP 9, STRESS PERIOD 5
 UBDSV3 SAVING "       HORT+DUNN" ON UNIT  61 AT TIME STEP 9, STRESS PERIOD 5
 UBDSV3 SAVING "  STORAGE CHANGE" ON UNIT  61 AT TIME STEP 9, STRESS PERIOD 5


UNSATURATED ZONE PACKAGE VOLUMETRIC BUDGET FOR  TIME STEP     9 STRESS PERIOD    5
  ------------------------------------------------------------------------------



     CUMULATIVE VOLUMES      L**3       RATES FOR THIS TIME STEP      L**3/T
     ------------------                 ------------------------

           IN:                                      IN:
           ---                                      ---
        INFILTRATION =     7428676.0800          INFILTRATION =           0.8475

          OUT:                                     OUT:
          ----                                     ----
              UZF ET =     7271642.4897                UZF ET =           0.8475
        UZF RECHARGE =       73224.0000          UZF RECHARGE =       0.0000E+00

            IN - OUT =       83809.5904              IN - OUT =       0.0000E+00

          STORAGE:                                 STORAGE:
          --------                                 --------
      STORAGE CHANGE =       83809.6438        STORAGE CHANGE =       0.0000E+00

 PERCENT DISCREPANCY IS DIFFERENCE BETWEEN IN-OUT MINUS CHANGE IN STORAGE
 DIVIDED BY THE AVERAGE OF IN AND OUT TIMES 100

 PERCENT DISCREPANCY =           0.00     PERCENT DISCREPANCY =           0.00






1
  VOLUMETRIC BUDGET FOR ENTIRE MODEL AT END OF TIME STEP    9, STRESS PERIOD   5
  ------------------------------------------------------------------------------

     CUMULATIVE VOLUMES      L**3       RATES FOR THIS TIME STEP      L**3/T
     ------------------                 ------------------------

           IN:                                      IN:
           ---                                      ---
             STORAGE     =     5703601.5000               STORAGE     =           0.6076
       CONSTANT HEAD     =           0.0000         CONSTANT HEAD     =           0.0000
     HEAD DEP BOUNDS     =     2504421.5000       HEAD DEP BOUNDS     =           0.2858
      STREAM LEAKAGE     =   101767400.0000        STREAM LEAKAGE     =          11.2815
        UZF RECHARGE     =       73223.9531          UZF RECHARGE     =           0.0000
               GW ET     =           0.0000                 GW ET     =           0.0000
     SURFACE LEAKAGE     =           0.0000       SURFACE LEAKAGE     =           0.0000

                TOTAL IN =   110048648.0000                  TOTAL IN =          12.1749

          OUT:                                     OUT:
          ----                                     ----
             STORAGE     =    10053805.0000               STORAGE     =           0.7774
       CONSTANT HEAD     =           0.0000         CONSTANT HEAD     =           0.0000
     HEAD DEP BOUNDS     =     2515368.7500       HEAD DEP BOUNDS     =           0.2870
      STREAM LEAKAGE     =    97480680.0000        STREAM LEAKAGE     =          11.1105
        UZF RECHARGE     =           0.0000          UZF RECHARGE     =           0.0000
               GW ET     =           0.0000                 GW ET     =           0.0000
     SURFACE LEAKAGE     =           0.0000       SURFACE LEAKAGE     =           0.0000

               TOTAL OUT =   110049856.0000                 TOTAL OUT =          12.1749

                IN - OUT =       -1208.0000                  IN - OUT =      -4.4823E-05

     PERCENT DISCREPANCY =          -0.00         PERCENT DISCREPANCY =          -0.00






         TIME SUMMARY AT END OF TIME STEP    9 IN STRESS PERIOD    5
                    SECONDS     MINUTES      HOURS       DAYS        YEARS
                    -----------------------------------------------------------
   TIME STEP LENGTH  87667.      1461.1      24.352      1.0147     2.77799E-03
 STRESS PERIOD TIME 7.89000E+05  13150.      219.17      9.1319     2.50019E-02
         TOTAL TIME 8.76540E+06 1.46090E+05  2434.8      101.45     0.27776    
1
 
 SOLVING FOR HEAD 
                                                   Max.-Head-Change                         Max.-Flux-Residual
  Residual-Control   Outer-Iter.   Inner-Iter.     Column Row Layer    Maximum-Head-Change  Column Row Layer    Maximum-Flux-Residual          L2-NORM 
          0                 1           2             3    2     1       0.2207286932E-02       3    2    1         0.1150363578E+00      0.2311105976E+00
          0                 2           2             3    2     1      -0.2147089847E-03       3    2    1        -0.1150364624E-01      0.2311099370E-01
          0                 3           1             3    2     1       0.1462088377E-04       3    2    1         0.8052554914E-03      0.1617764406E-02

    ------------------------------------------------
       NWT REQUIRED            3 OUTER ITERATIONS 
       AND A TOTAL OF          5 INNER ITERATIONS.
    ------------------------------------------------

 OUTPUT CONTROL FOR STRESS PERIOD    5   TIME STEP   10
    PRINT BUDGET
    SAVE BUDGET
 UBDSV1 SAVING "         STORAGE" ON UNIT 102 AT TIME STEP 10, STRESS PERIOD 5
 UBDSV2 SAVING "   CONSTANT HEAD" ON UNIT 102 AT TIME STEP 10, STRESS PERIOD 5
 UBDSV1 SAVING "FLOW RIGHT FACE " ON UNIT 102 AT TIME STEP 10, STRESS PERIOD 5
 UBDSV1 SAVING "FLOW FRONT FACE " ON UNIT 102 AT TIME STEP 10, STRESS PERIOD 5

  HEAD DEP BOUNDS   PERIOD    5   STEP    10
 BOUNDARY      1   LAYER   1   ROW    13   COL     1   RATE   -0.286951    
 BOUNDARY      2   LAYER   1   ROW    14   COL     9   RATE    0.285788    



 STREAM LISTING     PERIOD      5   STEP       10

 LAYER ROW COL. STREAM  RCH.  FLOW INTO     FLOW TO   FLOW OUT OF   OVRLND.     DIRECT     STREAM       STREAM     STREAM     STREAM   STREAMBED  STREAMBED
                SEG.NO.  NO.  STRM. RCH.    AQUIFER    STRM. RCH.    RUNOFF     PRECIP       ET          HEAD       DEPTH      WIDTH   CONDCTNC.   GRADIENT

   1    1    1     1     1    2.1000E+01  2.2592E-01   2.0774E+01  0.000E+00  0.000E+00  0.000E+00  1.09416E+03  1.115E+00  1.220E+01  5.490E-02  1.372E+00
   1    2    2     1     2    2.0774E+01  3.4916E-01   2.0425E+01  0.000E+00  0.000E+00  0.000E+00  1.08917E+03  1.110E+00  1.214E+01  8.495E-02  1.370E+00
   1    3    3     1     3    2.0425E+01  2.9709E-01   2.0128E+01  0.000E+00  0.000E+00  0.000E+00  1.08352E+03  1.105E+00  1.206E+01  7.238E-02  1.368E+00
   1    3    4     1     4    2.0128E+01  2.7299E-01   1.9855E+01  0.000E+00  0.000E+00  0.000E+00  1.07851E+03  1.100E+00  1.200E+01  6.659E-02  1.367E+00
   1    4    5     2     1    1.7855E+01  3.1056E-01   1.7544E+01  0.000E+00  0.000E+00  0.000E+00  1.07292E+03  9.816E-01  1.200E+01  7.800E-02  1.327E+00
   1    5    6     2     2    1.7544E+01  2.3834E-01   1.7306E+01  0.000E+00  0.000E+00  0.000E+00  1.06748E+03  9.724E-01  1.200E+01  6.000E-02  1.324E+00
   1    6    6     2     3    1.7306E+01  2.3787E-01   1.7068E+01  0.000E+00  0.000E+00  0.000E+00  1.06276E+03  9.644E-01  1.200E+01  6.000E-02  1.321E+00
   1    7    6     2     4    1.7068E+01  2.3738E-01   1.6831E+01  0.000E+00  0.000E+00  0.000E+00  1.05803E+03  9.564E-01  1.200E+01  6.000E-02  1.319E+00
   1    8    6     2     5    1.6831E+01  2.3690E-01   1.6594E+01  0.000E+00  0.000E+00  0.000E+00  1.05331E+03  9.483E-01  1.200E+01  6.000E-02  1.316E+00
   1    3    5     3     1    2.0000E+00  2.8252E-01   1.7175E+00  0.000E+00  0.000E+00  0.000E+00  1.07555E+03  1.909E+00  9.636E+00  7.227E-02  1.955E+00
   1    3    6     3     2    1.7175E+00  2.4905E-01   1.4684E+00  0.000E+00  0.000E+00  0.000E+00  1.07264E+03  1.727E+00  8.909E+00  6.682E-02  1.864E+00
   1    3    7     3     3    1.4684E+00  1.9718E-01   1.2712E+00  0.000E+00  0.000E+00  0.000E+00  1.06987E+03  1.555E+00  8.218E+00  5.547E-02  1.777E+00
   1    4    8     3     4    1.2712E+00  2.2567E-01   1.0456E+00  0.000E+00  0.000E+00  0.000E+00  1.06682E+03  1.364E+00  7.455E+00  6.709E-02  1.682E+00
   1    5    8     3     5    1.0456E+00  1.5790E-01   8.8768E-01  0.000E+00  0.000E+00  0.000E+00  1.06362E+03  1.164E+00  6.655E+00  4.991E-02  1.582E+00
   1    6    8     3     6    8.8768E-01  5.5980E-02   8.3170E-01  0.000E+00  0.000E+00  0.000E+00  1.06158E+03  1.036E+00  6.145E+00  1.844E-02  1.518E+00
   1    5   10     4     1    1.0000E+01  9.0919E-02   9.9091E+00  0.000E+00  0.000E+00  0.000E+00  1.07836E+03  6.368E-01  1.000E+01  2.500E-02  1.212E+00
   1    5    9     4     2    9.9091E+00  1.8158E-01   9.7275E+00  0.000E+00  0.000E+00  0.000E+00  1.07154E+03  6.315E-01  1.000E+01  5.000E-02  1.211E+00
   1    6    8     4     3    9.7275E+00  1.2689E-01   9.6006E+00  0.000E+00  0.000E+00  0.000E+00  1.06381E+03  6.256E-01  1.000E+01  3.500E-02  1.209E+00
   1    6    8     5     1    1.0432E+01  2.2686E-01   1.0205E+01  0.000E+00  0.000E+00  0.000E+00  1.05868E+03  6.790E-01  1.542E+01  6.166E-02  1.226E+00
   1    7    7     5     2    1.0205E+01  2.7894E-01   9.9265E+00  0.000E+00  0.000E+00  0.000E+00  1.05417E+03  6.732E-01  1.519E+01  7.594E-02  1.224E+00
   1    8    7     5     3    9.9265E+00  1.9221E-01   9.7343E+00  0.000E+00  0.000E+00  0.000E+00  1.04992E+03  6.676E-01  1.497E+01  5.241E-02  1.223E+00
   1    8    6     5     4    9.7343E+00  1.3577E-01   9.5985E+00  0.000E+00  0.000E+00  0.000E+00  1.04691E+03  6.637E-01  1.482E+01  3.706E-02  1.221E+00
   1    9    6     6     1    9.5985E+00  2.2097E-01   9.3776E+00  0.000E+00  0.000E+00  0.000E+00  1.04341E+03  6.828E-01  1.200E+01  6.000E-02  1.228E+00
   1   10    7     6     2    9.3776E+00  2.2039E-01   9.1572E+00  0.000E+00  0.000E+00  0.000E+00  1.03885E+03  6.732E-01  1.200E+01  6.000E-02  1.224E+00
   1   11    7     6     3    9.1572E+00  2.1981E-01   8.9374E+00  0.000E+00  0.000E+00  0.000E+00  1.03430E+03  6.636E-01  1.200E+01  6.000E-02  1.221E+00
   1   12    7     6     4    8.9374E+00  2.1923E-01   8.7181E+00  0.000E+00  0.000E+00  0.000E+00  1.02974E+03  6.539E-01  1.200E+01  6.000E-02  1.218E+00
   1   13    7     6     5    8.7181E+00 -1.1449E-01   8.8326E+00  0.000E+00  0.000E+00  0.000E+00  1.02656E+03  6.515E-01  1.200E+01  2.400E-01 -1.590E-01
   1   14    9     7     1    1.5000E+02  1.3362E+00   1.4866E+02  0.000E+00  0.000E+00  0.000E+00  1.03987E+03  2.288E+00  5.529E+01  5.593E-01  7.964E-01
   1   13    8     7     2    1.4866E+02  1.8393E+00   1.4682E+02  0.000E+00  0.000E+00  0.000E+00  1.03478E+03  2.279E+00  5.526E+01  6.148E-01  9.973E-01
   1   13    7     7     3    1.4682E+02  1.4811E+00   1.4534E+02  0.000E+00  0.000E+00  0.000E+00  1.02969E+03  2.270E+00  5.522E+01  5.584E-01  8.840E-01
   1   13    6     8     1    1.5418E+02  8.3272E-01   1.5334E+02  0.000E+00  0.000E+00  0.000E+00  1.02472E+03  2.843E+00  4.123E+01  4.201E-01  6.607E-01
   1   13    5     8     2    1.5334E+02  1.0421E-01   1.5324E+02  0.000E+00  0.000E+00  0.000E+00  1.01846E+03  2.840E+00  4.118E+01  4.196E-01  8.278E-02
   1   13    4     8     3    1.5324E+02 -2.6663E+00   1.5591E+02  0.000E+00  0.000E+00  0.000E+00  1.01222E+03  2.849E+00  4.131E+01  4.209E+00 -2.111E-01
   1   13    3     8     4    1.5591E+02 -3.7467E+00   1.5965E+02  0.000E+00  0.000E+00  0.000E+00  1.00600E+03  2.871E+00  4.163E+01  4.242E+00 -2.944E-01
   1   13    2     8     5    1.5965E+02 -2.6013E+00   1.6225E+02  0.000E+00  0.000E+00  0.000E+00  9.99767E+02  2.892E+00  4.194E+01  4.274E+00 -2.029E-01
   1   13    1     8     6    1.6225E+02 -1.9816E+00   1.6423E+02  0.000E+00  0.000E+00  0.000E+00  9.94783E+02  2.908E+00  4.216E+01  2.578E+00 -2.562E-01
   1    8    6     9     1    1.6594E+01  0.0000E+00   1.6594E+01  0.000E+00  0.000E+00  0.000E+00  1.08182E+03  3.071E+00  4.000E+00  0.000E+00  2.024E+00
   1    8    5     9     2    1.6594E+01  0.0000E+00   1.6594E+01  0.000E+00  0.000E+00  0.000E+00  1.08132E+03  3.071E+00  4.000E+00  0.000E+00  2.024E+00



 UBDSV3 SAVING "           GW ET" ON UNIT  61 AT TIME STEP 10, STRESS PERIOD 5
 UBDSV3 SAVING "    UZF RECHARGE" ON UNIT  61 AT TIME STEP 10, STRESS PERIOD 5
 UBDSV3 SAVING " SURFACE LEAKAGE" ON UNIT  61 AT TIME STEP 10, STRESS PERIOD 5
 UBDSV3 SAVING "       HORT+DUNN" ON UNIT  61 AT TIME STEP 10, STRESS PERIOD 5
 UBDSV3 SAVING "  STORAGE CHANGE" ON UNIT  61 AT TIME STEP 10, STRESS PERIOD 5


UNSATURATED ZONE PACKAGE VOLUMETRIC BUDGET FOR  TIME STEP    10 STRESS PERIOD    5
  ------------------------------------------------------------------------------



     CUMULATIVE VOLUMES      L**3       RATES FOR THIS TIME STEP      L**3/T
     ------------------                 ------------------------

           IN:                                      IN:
           ---                                      ---
        INFILTRATION =     7502973.5758          INFILTRATION =           0.8475

          OUT:                                     OUT:
          ----                                     ----
              UZF ET =     7345939.9854                UZF ET =           0.8475
        UZF RECHARGE =       73224.0000          UZF RECHARGE =       0.0000E+00

            IN - OUT =       83809.5904              IN - OUT =       0.0000E+00

          STORAGE:                                 STORAGE:
          --------                                 --------
      STORAGE CHANGE =       83809.6438        STORAGE CHANGE =       2.0749E-17

 PERCENT DISCREPANCY IS DIFFERENCE BETWEEN IN-OUT MINUS CHANGE IN STORAGE
 DIVIDED BY THE AVERAGE OF IN AND OUT TIMES 100

 PERCENT DISCREPANCY =           0.00     PERCENT DISCREPANCY =           0.00






1
  VOLUMETRIC BUDGET FOR ENTIRE MODEL AT END OF TIME STEP   10, STRESS PERIOD   5
  ------------------------------------------------------------------------------

     CUMULATIVE VOLUMES      L**3       RATES FOR THIS TIME STEP      L**3/T
     ------------------                 ------------------------

           IN:                                      IN:
           ---                                      ---
             STORAGE     =     5756435.0000               STORAGE     =           0.6027
       CONSTANT HEAD     =           0.0000         CONSTANT HEAD     =           0.0000
     HEAD DEP BOUNDS     =     2529475.5000       HEAD DEP BOUNDS     =           0.2858
      STREAM LEAKAGE     =   102756424.0000        STREAM LEAKAGE     =          11.2816
        UZF RECHARGE     =       73223.9531          UZF RECHARGE     =           0.0000
               GW ET     =           0.0000                 GW ET     =           0.0000
     SURFACE LEAKAGE     =           0.0000       SURFACE LEAKAGE     =           0.0000

                TOTAL IN =   111115560.0000                  TOTAL IN =          12.1701

          OUT:                                     OUT:
          ----                                     ----
             STORAGE     =    10121555.0000               STORAGE     =           0.7728
       CONSTANT HEAD     =           0.0000         CONSTANT HEAD     =           0.0000
     HEAD DEP BOUNDS     =     2540524.7500       HEAD DEP BOUNDS     =           0.2870
      STREAM LEAKAGE     =    98454688.0000        STREAM LEAKAGE     =          11.1104
        UZF RECHARGE     =           0.0000          UZF RECHARGE     =           0.0000
               GW ET     =           0.0000                 GW ET     =           0.0000
     SURFACE LEAKAGE     =           0.0000       SURFACE LEAKAGE     =           0.0000

               TOTAL OUT =   111116768.0000                 TOTAL OUT =          12.1701

                IN - OUT =       -1208.0000                  IN - OUT =      -4.4823E-05

     PERCENT DISCREPANCY =          -0.00         PERCENT DISCREPANCY =          -0.00






         TIME SUMMARY AT END OF TIME STEP   10 IN STRESS PERIOD    5
                    SECONDS     MINUTES      HOURS       DAYS        YEARS
                    -----------------------------------------------------------
   TIME STEP LENGTH  87667.      1461.1      24.352      1.0147     2.77799E-03
 STRESS PERIOD TIME 8.76667E+05  14611.      243.52      10.147     2.77799E-02
         TOTAL TIME 8.85306E+06 1.47551E+05  2459.2      102.47     0.28054    
1
 
 SOLVING FOR HEAD 
                                                   Max.-Head-Change                         Max.-Flux-Residual
  Residual-Control   Outer-Iter.   Inner-Iter.     Column Row Layer    Maximum-Head-Change  Column Row Layer    Maximum-Flux-Residual          L2-NORM 
          0                 1           2             3    2     1       0.2197526494E-02       3    2    1         0.1145228422E+00      0.2299517177E+00
          0                 2           2             3    2     1      -0.2137595578E-03       3    2    1        -0.1145229452E-01      0.2299511060E-01
          0                 3           1             3    2     1       0.1455623149E-04       3    2    1         0.8016608621E-03      0.1609667941E-02

    ------------------------------------------------
       NWT REQUIRED            3 OUTER ITERATIONS 
       AND A TOTAL OF          5 INNER ITERATIONS.
    ------------------------------------------------

 NO OUTPUT CONTROL FOR STRESS PERIOD    5   TIME STEP   11
 
 SOLVING FOR HEAD 
                                                   Max.-Head-Change                         Max.-Flux-Residual
  Residual-Control   Outer-Iter.   Inner-Iter.     Column Row Layer    Maximum-Head-Change  Column Row Layer    Maximum-Flux-Residual          L2-NORM 
          0                 1           2             3    2     1       0.2187819803E-02       3    2    1         0.1140122595E+00      0.2288695794E+00
          0                 2           2             3    2     1      -0.2128153594E-03       3    2    1        -0.1140123609E-01      0.2288689728E-01
          0                 3           1             3    2     1       0.1449193541E-04       3    2    1         0.7980867986E-03      0.1602074981E-02

    ------------------------------------------------
       NWT REQUIRED            3 OUTER ITERATIONS 
       AND A TOTAL OF          5 INNER ITERATIONS.
    ------------------------------------------------

 NO OUTPUT CONTROL FOR STRESS PERIOD    5   TIME STEP   12
 
 SOLVING FOR HEAD 
                                                   Max.-Head-Change                         Max.-Flux-Residual
  Residual-Control   Outer-Iter.   Inner-Iter.     Column Row Layer    Maximum-Head-Change  Column Row Layer    Maximum-Flux-Residual          L2-NORM 
          0                 1           2             3    2     1       0.2178252427E-02       3    2    1         0.1135089778E+00      0.2278662334E+00
          0                 2           2             3    2     1      -0.2118847115E-03       3    2    1        -0.1135090775E-01      0.2278655450E-01
          0                 3           1             3    2     1       0.1442856141E-04       3    2    1         0.7945637826E-03      0.1595049261E-02

    ------------------------------------------------
       NWT REQUIRED            3 OUTER ITERATIONS 
       AND A TOTAL OF          5 INNER ITERATIONS.
    ------------------------------------------------

 NO OUTPUT CONTROL FOR STRESS PERIOD    5   TIME STEP   13
 
 SOLVING FOR HEAD 
                                                   Max.-Head-Change                         Max.-Flux-Residual
  Residual-Control   Outer-Iter.   Inner-Iter.     Column Row Layer    Maximum-Head-Change  Column Row Layer    Maximum-Flux-Residual          L2-NORM 
          0                 1           2             3    2     1       0.2168908035E-02       3    2    1         0.1130174338E+00      0.2269316496E+00
          0                 2           2             3    2     1      -0.2109757549E-03       3    2    1        -0.1130175320E-01      0.2269309856E-01
          0                 3           1             3    2     1       0.1436666519E-04       3    2    1         0.7911229810E-03      0.1588506052E-02

    ------------------------------------------------
       NWT REQUIRED            3 OUTER ITERATIONS 
       AND A TOTAL OF          5 INNER ITERATIONS.
    ------------------------------------------------

 NO OUTPUT CONTROL FOR STRESS PERIOD    5   TIME STEP   14
 
 SOLVING FOR HEAD 
                                                   Max.-Head-Change                         Max.-Flux-Residual
  Residual-Control   Outer-Iter.   Inner-Iter.     Column Row Layer    Maximum-Head-Change  Column Row Layer    Maximum-Flux-Residual          L2-NORM 
          0                 1           2             3    2     1       0.2159610818E-02       3    2    1         0.1125284224E+00      0.2260558068E+00
          0                 2           2             3    2     1      -0.2100713872E-03       3    2    1        -0.1125285192E-01      0.2260551565E-01
          0                 3           1             3    2     1       0.1430508115E-04       3    2    1         0.7876998877E-03      0.1582378807E-02

    ------------------------------------------------
       NWT REQUIRED            3 OUTER ITERATIONS 
       AND A TOTAL OF          5 INNER ITERATIONS.
    ------------------------------------------------

 NO OUTPUT CONTROL FOR STRESS PERIOD    5   TIME STEP   15
 
 SOLVING FOR HEAD 
                                                   Max.-Head-Change                         Max.-Flux-Residual
  Residual-Control   Outer-Iter.   Inner-Iter.     Column Row Layer    Maximum-Head-Change  Column Row Layer    Maximum-Flux-Residual          L2-NORM 
          0                 1           2             1    1     1       0.2151658502E-02       3    2    1         0.1120463714E+00      0.2252380489E+00
          0                 2           2             1    1     1      -0.2092978530E-03       3    2    1        -0.1120464669E-01      0.2252499785E-01
          0                 3           1             1    1     1       0.1425240644E-04       3    2    1         0.7843255275E-03      0.1576746303E-02

    ------------------------------------------------
       NWT REQUIRED            3 OUTER ITERATIONS 
       AND A TOTAL OF          5 INNER ITERATIONS.
    ------------------------------------------------

 NO OUTPUT CONTROL FOR STRESS PERIOD    5   TIME STEP   16
 
 SOLVING FOR HEAD 
                                                   Max.-Head-Change                         Max.-Flux-Residual
  Residual-Control   Outer-Iter.   Inner-Iter.     Column Row Layer    Maximum-Head-Change  Column Row Layer    Maximum-Flux-Residual          L2-NORM 
          0                 1           2             1    1     1       0.2149213123E-02       1    1    1         0.1115801316E+00      0.2244624038E+00
          0                 2           2             1    1     1      -0.2090599836E-03       1    1    1        -0.1115802331E-01      0.2244616543E-01
          0                 3           1             1    1     1       0.1423620852E-04       1    1    1         0.7810618868E-03      0.1571217387E-02

    ------------------------------------------------
       NWT REQUIRED            3 OUTER ITERATIONS 
       AND A TOTAL OF          5 INNER ITERATIONS.
    ------------------------------------------------

 NO OUTPUT CONTROL FOR STRESS PERIOD    5   TIME STEP   17
 
 SOLVING FOR HEAD 
                                                   Max.-Head-Change                         Max.-Flux-Residual
  Residual-Control   Outer-Iter.   Inner-Iter.     Column Row Layer    Maximum-Head-Change  Column Row Layer    Maximum-Flux-Residual          L2-NORM 
          0                 1           2             1    1     1       0.2146775680E-02       1    1    1         0.1114533417E+00      0.2237369486E+00
          0                 2           2             1    1     1      -0.2088228865E-03       1    1    1        -0.1114534429E-01      0.2237362767E-01
          0                 3           1             1    1     1       0.1422006291E-04       1    1    1         0.7801743484E-03      0.1566145161E-02

    ------------------------------------------------
       NWT REQUIRED            3 OUTER ITERATIONS 
       AND A TOTAL OF          5 INNER ITERATIONS.
    ------------------------------------------------

 NO OUTPUT CONTROL FOR STRESS PERIOD    5   TIME STEP   18
 
 SOLVING FOR HEAD 
                                                   Max.-Head-Change                         Max.-Flux-Residual
  Residual-Control   Outer-Iter.   Inner-Iter.     Column Row Layer    Maximum-Head-Change  Column Row Layer    Maximum-Flux-Residual          L2-NORM 
          0                 1           2             1    1     1       0.2144346171E-02       1    1    1         0.1113269632E+00      0.2230532553E+00
          0                 2           2             1    1     1      -0.2085865608E-03       1    1    1        -0.1113270640E-01      0.2230525188E-01
          0                 3           1             1    1     1       0.1420397007E-04       1    1    1         0.7792896942E-03      0.1561358431E-02

    ------------------------------------------------
       NWT REQUIRED            3 OUTER ITERATIONS 
       AND A TOTAL OF          5 INNER ITERATIONS.
    ------------------------------------------------

 NO OUTPUT CONTROL FOR STRESS PERIOD    5   TIME STEP   19
 
 SOLVING FOR HEAD 
                                                   Max.-Head-Change                         Max.-Flux-Residual
  Residual-Control   Outer-Iter.   Inner-Iter.     Column Row Layer    Maximum-Head-Change  Column Row Layer    Maximum-Flux-Residual          L2-NORM 
          0                 1           2             1    1     1       0.2141924550E-02       1    1    1         0.1112009961E+00      0.2224033304E+00
          0                 2           2             1    1     1      -0.2083510023E-03       1    1    1        -0.1112010964E-01      0.2224026708E-01
          0                 3           1             1    1     1       0.1418792954E-04       1    1    1         0.7784079267E-03      0.1556821740E-02

    ------------------------------------------------
       NWT REQUIRED            3 OUTER ITERATIONS 
       AND A TOTAL OF          5 INNER ITERATIONS.
    ------------------------------------------------

 NO OUTPUT CONTROL FOR STRESS PERIOD    5   TIME STEP   20
 
 SOLVING FOR HEAD 
                                                   Max.-Head-Change                         Max.-Flux-Residual
  Residual-Control   Outer-Iter.   Inner-Iter.     Column Row Layer    Maximum-Head-Change  Column Row Layer    Maximum-Flux-Residual          L2-NORM 
          0                 1           2             1    1     1       0.2139510816E-02       1    1    1         0.1110754380E+00      0.2217871922E+00
          0                 2           2             1    1     1      -0.2081162110E-03       1    1    1        -0.1110755379E-01      0.2217865568E-01
          0                 3           1             1    1     1       0.1417194084E-04       1    1    1         0.7775290064E-03      0.1552502461E-02

    ------------------------------------------------
       NWT REQUIRED            3 OUTER ITERATIONS 
       AND A TOTAL OF          5 INNER ITERATIONS.
    ------------------------------------------------

 NO OUTPUT CONTROL FOR STRESS PERIOD    5   TIME STEP   21
 
 SOLVING FOR HEAD 
                                                   Max.-Head-Change                         Max.-Flux-Residual
  Residual-Control   Outer-Iter.   Inner-Iter.     Column Row Layer    Maximum-Head-Change  Column Row Layer    Maximum-Flux-Residual          L2-NORM 
          0                 1           2             1    1     1       0.2137104922E-02       1    1    1         0.1109502888E+00      0.2211959636E+00
          0                 2           2             1    1     1      -0.2078821822E-03       1    1    1        -0.1109503883E-01      0.2211952106E-01
          0                 3           1             1    1     1       0.1415600397E-04       1    1    1         0.7766529363E-03      0.1548355648E-02

    ------------------------------------------------
       NWT REQUIRED            3 OUTER ITERATIONS 
       AND A TOTAL OF          5 INNER ITERATIONS.
    ------------------------------------------------

 NO OUTPUT CONTROL FOR STRESS PERIOD    5   TIME STEP   22
 
 SOLVING FOR HEAD 
                                                   Max.-Head-Change                         Max.-Flux-Residual
  Residual-Control   Outer-Iter.   Inner-Iter.     Column Row Layer    Maximum-Head-Change  Column Row Layer    Maximum-Flux-Residual          L2-NORM 
          0                 1           2             1    1     1       0.2134706852E-02       1    1    1         0.1108255462E+00      0.2206389528E+00
          0                 2           2             1    1     1      -0.2076489152E-03       1    1    1        -0.1108256452E-01      0.2206380869E-01
          0                 3           1             1    1     1       0.1414011964E-04       1    1    1         0.7757797573E-03      0.1544443775E-02

    ------------------------------------------------
       NWT REQUIRED            3 OUTER ITERATIONS 
       AND A TOTAL OF          5 INNER ITERATIONS.
    ------------------------------------------------

 NO OUTPUT CONTROL FOR STRESS PERIOD    5   TIME STEP   23
 
 SOLVING FOR HEAD 
                                                   Max.-Head-Change                         Max.-Flux-Residual
  Residual-Control   Outer-Iter.   Inner-Iter.     Column Row Layer    Maximum-Head-Change  Column Row Layer    Maximum-Flux-Residual          L2-NORM 
          0                 1           2             1    1     1       0.2132316575E-02       1    1    1         0.1107012092E+00      0.2201065768E+00
          0                 2           2             1    1     1      -0.2074164058E-03       1    1    1        -0.1107013078E-01      0.2201060990E-01
          0                 3           1             1    1     1       0.1412428691E-04       1    1    1         0.7749093995E-03      0.1540749035E-02

    ------------------------------------------------
       NWT REQUIRED            3 OUTER ITERATIONS 
       AND A TOTAL OF          5 INNER ITERATIONS.
    ------------------------------------------------

 NO OUTPUT CONTROL FOR STRESS PERIOD    5   TIME STEP   24
 
 SOLVING FOR HEAD 
                                                   Max.-Head-Change                         Max.-Flux-Residual
  Residual-Control   Outer-Iter.   Inner-Iter.     Column Row Layer    Maximum-Head-Change  Column Row Layer    Maximum-Flux-Residual          L2-NORM 
          0                 1           2             1    1     1       0.2129912156E-02       1    1    1         0.1105761382E+00      0.2195946062E+00
          0                 2           2             1    1     1      -0.2071825208E-03       1    1    1        -0.1105762365E-01      0.2195940097E-01
          0                 3           1             1    1     1       0.1410836022E-04       1    1    1         0.7740339025E-03      0.1537153389E-02

    ------------------------------------------------
       NWT REQUIRED            3 OUTER ITERATIONS 
       AND A TOTAL OF          5 INNER ITERATIONS.
    ------------------------------------------------

 NO OUTPUT CONTROL FOR STRESS PERIOD    5   TIME STEP   25
 
 SOLVING FOR HEAD 
                                                   Max.-Head-Change                         Max.-Flux-Residual
  Residual-Control   Outer-Iter.   Inner-Iter.     Column Row Layer    Maximum-Head-Change  Column Row Layer    Maximum-Flux-Residual          L2-NORM 
          0                 1           2             1    1     1       0.2127537454E-02       1    1    1         0.1104526100E+00      0.2191020487E+00
          0                 2           2             1    1     1      -0.2069515264E-03       1    1    1        -0.1104527079E-01      0.2191013175E-01
          0                 3           1             1    1     1       0.1409262997E-04       1    1    1         0.7731691840E-03      0.1533712698E-02

    ------------------------------------------------
       NWT REQUIRED            3 OUTER ITERATIONS 
       AND A TOTAL OF          5 INNER ITERATIONS.
    ------------------------------------------------

 NO OUTPUT CONTROL FOR STRESS PERIOD    5   TIME STEP   26
 
 SOLVING FOR HEAD 
                                                   Max.-Head-Change                         Max.-Flux-Residual
  Residual-Control   Outer-Iter.   Inner-Iter.     Column Row Layer    Maximum-Head-Change  Column Row Layer    Maximum-Flux-Residual          L2-NORM 
          0                 1           2             1    1     1       0.2125170512E-02       1    1    1         0.1103294845E+00      0.2186331460E+00
          0                 2           2             1    1     1      -0.2067212871E-03       1    1    1        -0.1103295821E-01      0.2186326331E-01
          0                 3           1             1    1     1       0.1407695179E-04       1    1    1         0.7723073089E-03      0.1530322268E-02

    ------------------------------------------------
       NWT REQUIRED            3 OUTER ITERATIONS 
       AND A TOTAL OF          5 INNER ITERATIONS.
    ------------------------------------------------

 NO OUTPUT CONTROL FOR STRESS PERIOD    5   TIME STEP   27
 
 SOLVING FOR HEAD 
                                                   Max.-Head-Change                         Max.-Flux-Residual
  Residual-Control   Outer-Iter.   Inner-Iter.     Column Row Layer    Maximum-Head-Change  Column Row Layer    Maximum-Flux-Residual          L2-NORM 
          0                 1           2             1    1     1       0.2122811268E-02       1    1    1         0.1102067615E+00      0.2181772683E+00
          0                 2           2             1    1     1      -0.2064917966E-03       1    1    1        -0.1102068588E-01      0.2181765473E-01
          0                 3           1             1    1     1       0.1406132472E-04       1    1    1         0.7714482632E-03      0.1527234119E-02

    ------------------------------------------------
       NWT REQUIRED            3 OUTER ITERATIONS 
       AND A TOTAL OF          5 INNER ITERATIONS.
    ------------------------------------------------

 NO OUTPUT CONTROL FOR STRESS PERIOD    5   TIME STEP   28
 
 SOLVING FOR HEAD 
                                                   Max.-Head-Change                         Max.-Flux-Residual
  Residual-Control   Outer-Iter.   Inner-Iter.     Column Row Layer    Maximum-Head-Change  Column Row Layer    Maximum-Flux-Residual          L2-NORM 
          0                 1           2             2    2     1       0.3111769664E-02       2    2    1         0.1620293302E+00      0.3181393812E+00
          0                 2           2             2    2     1      -0.3026905964E-03       2    2    1        -0.1620295052E-01      0.3181390515E-01
          0                 3           1             2    2     1       0.2061210481E-04       2    2    1         0.1134206852E-02      0.2226966528E-02

    ------------------------------------------------
       NWT REQUIRED            3 OUTER ITERATIONS 
       AND A TOTAL OF          5 INNER ITERATIONS.
    ------------------------------------------------

 NO OUTPUT CONTROL FOR STRESS PERIOD    5   TIME STEP   29
 
 SOLVING FOR HEAD 
                                                   Max.-Head-Change                         Max.-Flux-Residual
  Residual-Control   Outer-Iter.   Inner-Iter.     Column Row Layer    Maximum-Head-Change  Column Row Layer    Maximum-Flux-Residual          L2-NORM 
          0                 1           2             2    2     1       0.7356094605E-02       2    2    1         0.3839012784E+00      0.6788143972E+00
          0                 2           2             2    2     1      -0.7155494466E-03       2    2    1        -0.3839026251E-01      0.6788155171E-01
          0                 3           1             2    2     1       0.4872624490E-04       2    2    1         0.2687318265E-02      0.4751706406E-02

    ------------------------------------------------
       NWT REQUIRED            3 OUTER ITERATIONS 
       AND A TOTAL OF          5 INNER ITERATIONS.
    ------------------------------------------------

 NO OUTPUT CONTROL FOR STRESS PERIOD    5   TIME STEP   30



 STREAM LISTING     PERIOD      5   STEP       30

 LAYER ROW COL. STREAM  RCH.  FLOW INTO     FLOW TO   FLOW OUT OF   OVRLND.     DIRECT     STREAM       STREAM     STREAM     STREAM   STREAMBED  STREAMBED
                SEG.NO.  NO.  STRM. RCH.    AQUIFER    STRM. RCH.    RUNOFF     PRECIP       ET          HEAD       DEPTH      WIDTH   CONDCTNC.   GRADIENT

   1    1    1     1     1    7.4250E+01  4.1989E-01   7.3830E+01  0.000E+00  0.000E+00  0.000E+00  1.09474E+03  1.690E+00  1.990E+01  8.954E-02  1.563E+00
   1    2    2     1     2    7.3830E+01  6.5045E-01   7.3180E+01  0.000E+00  0.000E+00  0.000E+00  1.08974E+03  1.684E+00  1.984E+01  1.389E-01  1.561E+00
   1    3    3     1     3    7.3180E+01  5.5490E-01   7.2625E+01  0.000E+00  0.000E+00  0.000E+00  1.08410E+03  1.677E+00  1.977E+01  1.186E-01  1.559E+00
   1    3    4     1     4    7.2625E+01  5.1113E-01   7.2114E+01  0.000E+00  0.000E+00  0.000E+00  1.07908E+03  1.671E+00  1.972E+01  1.094E-01  1.557E+00
   1    4    5     2     1    7.0114E+01  4.0857E-01   6.9705E+01  0.000E+00  0.000E+00  0.000E+00  1.07417E+03  2.238E+00  1.200E+01  7.800E-02  1.746E+00
   1    5    6     2     2    6.9705E+01  3.1387E-01   6.9391E+01  0.000E+00  0.000E+00  0.000E+00  1.06874E+03  2.231E+00  1.200E+01  6.000E-02  1.744E+00
   1    6    6     2     3    6.9391E+01  3.1350E-01   6.9078E+01  0.000E+00  0.000E+00  0.000E+00  1.06402E+03  2.225E+00  1.200E+01  6.000E-02  1.742E+00
   1    7    6     2     4    6.9078E+01  3.1314E-01   6.8765E+01  0.000E+00  0.000E+00  0.000E+00  1.05929E+03  2.219E+00  1.200E+01  6.000E-02  1.740E+00
   1    8    6     2     5    6.8765E+01  3.1278E-01   6.8452E+01  0.000E+00  0.000E+00  0.000E+00  1.05457E+03  2.213E+00  1.200E+01  6.000E-02  1.738E+00
   1    3    5     3     1    2.0000E+00  2.8252E-01   1.7175E+00  0.000E+00  0.000E+00  0.000E+00  1.07555E+03  1.909E+00  9.636E+00  7.227E-02  1.955E+00
   1    3    6     3     2    1.7175E+00  2.4905E-01   1.4684E+00  0.000E+00  0.000E+00  0.000E+00  1.07264E+03  1.727E+00  8.909E+00  6.682E-02  1.864E+00
   1    3    7     3     3    1.4684E+00  1.9718E-01   1.2712E+00  0.000E+00  0.000E+00  0.000E+00  1.06987E+03  1.555E+00  8.218E+00  5.547E-02  1.777E+00
   1    4    8     3     4    1.2712E+00  2.2567E-01   1.0456E+00  0.000E+00  0.000E+00  0.000E+00  1.06682E+03  1.364E+00  7.455E+00  6.709E-02  1.682E+00
   1    5    8     3     5    1.0456E+00  1.5790E-01   8.8768E-01  0.000E+00  0.000E+00  0.000E+00  1.06362E+03  1.164E+00  6.655E+00  4.991E-02  1.582E+00
   1    6    8     3     6    8.8768E-01  5.5980E-02   8.3170E-01  0.000E+00  0.000E+00  0.000E+00  1.06158E+03  1.036E+00  6.145E+00  1.844E-02  1.518E+00
   1    5   10     4     1    1.0000E+01  9.0919E-02   9.9091E+00  0.000E+00  0.000E+00  0.000E+00  1.07836E+03  6.368E-01  1.000E+01  2.500E-02  1.212E+00
   1    5    9     4     2    9.9091E+00  1.8158E-01   9.7275E+00  0.000E+00  0.000E+00  0.000E+00  1.07154E+03  6.315E-01  1.000E+01  5.000E-02  1.211E+00
   1    6    8     4     3    9.7275E+00  1.2689E-01   9.6006E+00  0.000E+00  0.000E+00  0.000E+00  1.06381E+03  6.256E-01  1.000E+01  3.500E-02  1.209E+00
   1    6    8     5     1    1.0432E+01  2.2686E-01   1.0205E+01  0.000E+00  0.000E+00  0.000E+00  1.05868E+03  6.790E-01  1.542E+01  6.166E-02  1.226E+00
   1    7    7     5     2    1.0205E+01  2.7894E-01   9.9265E+00  0.000E+00  0.000E+00  0.000E+00  1.05417E+03  6.732E-01  1.519E+01  7.594E-02  1.224E+00
   1    8    7     5     3    9.9265E+00  1.9221E-01   9.7343E+00  0.000E+00  0.000E+00  0.000E+00  1.04992E+03  6.676E-01  1.497E+01  5.241E-02  1.223E+00
   1    8    6     5     4    9.7343E+00  1.3577E-01   9.5985E+00  0.000E+00  0.000E+00  0.000E+00  1.04691E+03  6.637E-01  1.482E+01  3.706E-02  1.221E+00
   1    9    6     6     1    9.5985E+00  2.2097E-01   9.3776E+00  0.000E+00  0.000E+00  0.000E+00  1.04341E+03  6.828E-01  1.200E+01  6.000E-02  1.228E+00
   1   10    7     6     2    9.3776E+00  2.2039E-01   9.1572E+00  0.000E+00  0.000E+00  0.000E+00  1.03885E+03  6.732E-01  1.200E+01  6.000E-02  1.224E+00
   1   11    7     6     3    9.1572E+00  2.1981E-01   8.9374E+00  0.000E+00  0.000E+00  0.000E+00  1.03430E+03  6.636E-01  1.200E+01  6.000E-02  1.221E+00
   1   12    7     6     4    8.9374E+00  2.1923E-01   8.7181E+00  0.000E+00  0.000E+00  0.000E+00  1.02974E+03  6.539E-01  1.200E+01  6.000E-02  1.218E+00
   1   13    7     6     5    8.7181E+00 -1.1424E-01   8.8324E+00  0.000E+00  0.000E+00  0.000E+00  1.02656E+03  6.515E-01  1.200E+01  2.400E-01 -1.587E-01
   1   14    9     7     1    1.5000E+02  1.3366E+00   1.4866E+02  0.000E+00  0.000E+00  0.000E+00  1.03987E+03  2.288E+00  5.529E+01  5.593E-01  7.966E-01
   1   13    8     7     2    1.4866E+02  1.8398E+00   1.4682E+02  0.000E+00  0.000E+00  0.000E+00  1.03478E+03  2.279E+00  5.526E+01  6.148E-01  9.976E-01
   1   13    7     7     3    1.4682E+02  1.4816E+00   1.4534E+02  0.000E+00  0.000E+00  0.000E+00  1.02969E+03  2.270E+00  5.522E+01  5.584E-01  8.844E-01
   1   13    6     8     1    1.5417E+02  8.3329E-01   1.5334E+02  0.000E+00  0.000E+00  0.000E+00  1.02472E+03  2.843E+00  4.122E+01  4.201E-01  6.612E-01
   1   13    5     8     2    1.5334E+02  1.0465E-01   1.5324E+02  0.000E+00  0.000E+00  0.000E+00  1.01846E+03  2.840E+00  4.118E+01  4.196E-01  8.313E-02
   1   13    4     8     3    1.5324E+02 -2.6647E+00   1.5590E+02  0.000E+00  0.000E+00  0.000E+00  1.01222E+03  2.849E+00  4.131E+01  4.209E+00 -2.110E-01
   1   13    3     8     4    1.5590E+02 -3.7457E+00   1.5965E+02  0.000E+00  0.000E+00  0.000E+00  1.00600E+03  2.871E+00  4.163E+01  4.242E+00 -2.943E-01
   1   13    2     8     5    1.5965E+02 -2.6009E+00   1.6225E+02  0.000E+00  0.000E+00  0.000E+00  9.99767E+02  2.892E+00  4.194E+01  4.274E+00 -2.029E-01
   1   13    1     8     6    1.6225E+02 -1.9814E+00   1.6423E+02  0.000E+00  0.000E+00  0.000E+00  9.94783E+02  2.908E+00  4.216E+01  2.578E+00 -2.562E-01
   1    8    6     9     1    6.8452E+01  0.0000E+00   6.8452E+01  0.000E+00  0.000E+00  0.000E+00  1.08594E+03  7.186E+00  4.000E+00  0.000E+00  3.395E+00
   1    8    5     9     2    6.8452E+01  0.0000E+00   6.8452E+01  0.000E+00  0.000E+00  0.000E+00  1.08544E+03  7.186E+00  4.000E+00  0.000E+00  3.395E+00





UNSATURATED ZONE PACKAGE VOLUMETRIC BUDGET FOR  TIME STEP    30 STRESS PERIOD    5
  ------------------------------------------------------------------------------



     CUMULATIVE VOLUMES      L**3       RATES FOR THIS TIME STEP      L**3/T
     ------------------                 ------------------------

           IN:                                      IN:
           ---                                      ---
        INFILTRATION =     8988923.4910          INFILTRATION =           0.8475

          OUT:                                     OUT:
          ----                                     ----
              UZF ET =     8831889.9006                UZF ET =           0.8475
        UZF RECHARGE =       73224.0000          UZF RECHARGE =       0.0000E+00

            IN - OUT =       83809.5904              IN - OUT =       0.0000E+00

          STORAGE:                                 STORAGE:
          --------                                 --------
      STORAGE CHANGE =       83809.6438        STORAGE CHANGE =       2.0749E-17

 PERCENT DISCREPANCY IS DIFFERENCE BETWEEN IN-OUT MINUS CHANGE IN STORAGE
 DIVIDED BY THE AVERAGE OF IN AND OUT TIMES 100

 PERCENT DISCREPANCY =          -0.00     PERCENT DISCREPANCY =           0.00






1
  VOLUMETRIC BUDGET FOR ENTIRE MODEL AT END OF TIME STEP   30, STRESS PERIOD   5
  ------------------------------------------------------------------------------

     CUMULATIVE VOLUMES      L**3       RATES FOR THIS TIME STEP      L**3/T
     ------------------                 ------------------------

           IN:                                      IN:
           ---                                      ---
             STORAGE     =     6743105.0000               STORAGE     =           0.5261
       CONSTANT HEAD     =           0.0000         CONSTANT HEAD     =           0.0000
     HEAD DEP BOUNDS     =     3030581.7500       HEAD DEP BOUNDS     =           0.2858
      STREAM LEAKAGE     =   122693344.0000        STREAM LEAKAGE     =          12.6761
        UZF RECHARGE     =       73223.9531          UZF RECHARGE     =           0.0000
               GW ET     =           0.0000                 GW ET     =           0.0000
     SURFACE LEAKAGE     =           0.0000       SURFACE LEAKAGE     =           0.0000

                TOTAL IN =   132540256.0000                  TOTAL IN =          13.4881

          OUT:                                     OUT:
          ----                                     ----
             STORAGE     =    11566203.0000               STORAGE     =           2.0945
       CONSTANT HEAD     =           0.0000         CONSTANT HEAD     =           0.0000
     HEAD DEP BOUNDS     =     3043643.2500       HEAD DEP BOUNDS     =           0.2869
      STREAM LEAKAGE     =   117931736.0000        STREAM LEAKAGE     =          11.1070
        UZF RECHARGE     =           0.0000          UZF RECHARGE     =           0.0000
               GW ET     =           0.0000                 GW ET     =           0.0000
     SURFACE LEAKAGE     =           0.0000       SURFACE LEAKAGE     =           0.0000

               TOTAL OUT =   132541584.0000                 TOTAL OUT =          13.4885

                IN - OUT =       -1328.0000                  IN - OUT =      -4.4537E-04

     PERCENT DISCREPANCY =          -0.00         PERCENT DISCREPANCY =          -0.00






         TIME SUMMARY AT END OF TIME STEP   30 IN STRESS PERIOD    5
                    SECONDS     MINUTES      HOURS       DAYS        YEARS
                    -----------------------------------------------------------
   TIME STEP LENGTH  87667.      1461.1      24.352      1.0147     2.77799E-03
 STRESS PERIOD TIME 2.63000E+06  43833.      730.56      30.440     8.33397E-02
         TOTAL TIME 1.06064E+07 1.76773E+05  2946.2      122.76     0.33610    
1
1
                            STRESS PERIOD NO.    6, LENGTH =   2630000.    
                            -----------------------------------------------

                              NUMBER OF TIME STEPS =    30

                               MULTIPLIER FOR DELT =     1.000

                            INITIAL TIME STEP SIZE =   87666.66    

 REUSING NON-PARAMETER GHB CELLS FROM LAST STRESS PERIOD

      2 GHB CELLS

 REUSING STREAM SEGMENT DATA FROM LAST STRESS PERIOD



            AREAL INFILTRATION RATE
 READING ON UNIT   19 WITH FORMAT: (FREE)              

            1           2           3           4           5           6           7           8           9          10
 ........................................................................................................................
   1   1.0000E-10  2.0000E-10   0.000       0.000       0.000       0.000       0.000       0.000       0.000       0.000    
   2   2.0000E-10  1.0000E-10  2.0000E-10   0.000       0.000      8.0000E-10  8.0000E-10  5.0000E-10   0.000       0.000    
   3    0.000      5.0000E-10  1.0000E-10  1.0000E-10  8.0000E-10  8.0000E-10  5.0000E-10  5.0000E-10   0.000       0.000    
   4   8.0000E-10  5.0000E-10  1.0000E-10  1.0000E-10  1.0000E-10  1.0000E-10  1.0000E-10  1.0000E-10  2.0000E-10   0.000    
   5   8.0000E-10  5.0000E-10  1.0000E-10  1.0000E-10  1.0000E-10  1.0000E-10  1.0000E-10  1.0000E-10  1.0000E-10  1.0000E-10
   6   8.0000E-10  5.0000E-10  5.0000E-10  2.0000E-10  2.0000E-10  1.0000E-10  1.0000E-10  1.0000E-10  1.0000E-10  5.0000E-10
   7   8.0000E-10  5.0000E-10  5.0000E-10  2.0000E-10  2.0000E-10  1.0000E-10  1.0000E-10  2.0000E-10  2.0000E-10   0.000    
   8    0.000      5.0000E-10  5.0000E-10  2.0000E-10  2.0000E-10  1.0000E-10  1.0000E-10  2.0000E-10  5.0000E-10   0.000    
   9    0.000      5.0000E-10  5.0000E-10  2.0000E-10  2.0000E-10  1.0000E-10  1.0000E-10  2.0000E-10  5.0000E-10   0.000    
  10    0.000      5.0000E-10  5.0000E-10  2.0000E-10  2.0000E-10  1.0000E-10  1.0000E-10  2.0000E-10  5.0000E-10  8.0000E-10
  11    0.000      1.0000E-10  1.0000E-10  1.0000E-10  1.0000E-10  1.0000E-10  1.0000E-10  2.0000E-10  5.0000E-10   0.000    
  12   1.0000E-10  1.0000E-10  1.0000E-10  1.0000E-10  1.0000E-10  1.0000E-10  1.0000E-10  1.0000E-10  2.0000E-10   0.000    
  13   1.0000E-10  1.0000E-10  2.0000E-10  2.0000E-10  2.0000E-10  2.0000E-10  2.0000E-10  1.0000E-10  1.0000E-10   0.000    
  14    0.000      2.0000E-10  5.0000E-10  5.0000E-10  5.0000E-10  5.0000E-10  5.0000E-10  2.0000E-10  1.0000E-10   0.000    
  15    0.000       0.000      8.0000E-10  8.0000E-10  8.0000E-10  8.0000E-10   0.000       0.000       0.000       0.000    

                  ET RATE =  5.000000E-08

 USING ET EXTINCTION DEPTH FROM PREVIOUS STRESS PERIOD. CURRENT PERIOD IS:       6

 USING EXTINCTION WATER CONTENT FROM PREVIOUS STRESS PERIOD. CURRENT PERIOD IS:       6

 USING AIR ENTRY PRESSURE FROM PREVIOUS STRESS PERIOD. CURRENT PERIOD IS:       6

 USING ROOT PRESSURE HEAD FROM PREVIOUS STRESS PERIOD. CURRENT PERIOD IS:       6

 USING ROOT ACTIVITY FROM PREVIOUS STRESS PERIOD. CURRENT PERIOD IS:       6
 
 SOLVING FOR HEAD 
                                                   Max.-Head-Change                         Max.-Flux-Residual
  Residual-Control   Outer-Iter.   Inner-Iter.     Column Row Layer    Maximum-Head-Change  Column Row Layer    Maximum-Flux-Residual          L2-NORM 
          0                 1           2             2    2     1       0.7313418926E-02       2    2    1         0.3816575357E+00      0.6742640024E+00
          0                 2           2             2    2     1      -0.7113982327E-03       2    2    1        -0.3816588600E-01      0.6742651301E-01
          0                 3           1             2    2     1       0.4844356235E-04       2    2    1         0.2671611915E-02      0.4719855431E-02

    ------------------------------------------------
       NWT REQUIRED            3 OUTER ITERATIONS 
       AND A TOTAL OF          5 INNER ITERATIONS.
    ------------------------------------------------

 NO OUTPUT CONTROL FOR STRESS PERIOD    6   TIME STEP    1
 
 SOLVING FOR HEAD 
                                                   Max.-Head-Change                         Max.-Flux-Residual
  Residual-Control   Outer-Iter.   Inner-Iter.     Column Row Layer    Maximum-Head-Change  Column Row Layer    Maximum-Flux-Residual          L2-NORM 
          0                 1           2             2    2     1       0.7271246123E-02       2    2    1         0.3794403092E+00      0.6699362339E+00
          0                 2           2             2    2     1      -0.7072959357E-03       2    2    1        -0.3794416115E-01      0.6699373224E-01
          0                 3           1             2    2     1       0.4816421168E-04       2    2    1         0.2656091190E-02      0.4689560725E-02

    ------------------------------------------------
       NWT REQUIRED            3 OUTER ITERATIONS 
       AND A TOTAL OF          5 INNER ITERATIONS.
    ------------------------------------------------

 NO OUTPUT CONTROL FOR STRESS PERIOD    6   TIME STEP    2
 
 SOLVING FOR HEAD 
                                                   Max.-Head-Change                         Max.-Flux-Residual
  Residual-Control   Outer-Iter.   Inner-Iter.     Column Row Layer    Maximum-Head-Change  Column Row Layer    Maximum-Flux-Residual          L2-NORM 
          0                 1           2             2    2     1       0.7229654404E-02       2    2    1         0.3772537019E+00      0.6658099569E+00
          0                 2           2             2    2     1      -0.7032501626E-03       2    2    1        -0.3772549825E-01      0.6658110752E-01
          0                 3           1             2    2     1       0.4788871026E-04       2    2    1         0.2640784802E-02      0.4660679876E-02

    ------------------------------------------------
       NWT REQUIRED            3 OUTER ITERATIONS 
       AND A TOTAL OF          5 INNER ITERATIONS.
    ------------------------------------------------

 NO OUTPUT CONTROL FOR STRESS PERIOD    6   TIME STEP    3
 
 SOLVING FOR HEAD 
                                                   Max.-Head-Change                         Max.-Flux-Residual
  Residual-Control   Outer-Iter.   Inner-Iter.     Column Row Layer    Maximum-Head-Change  Column Row Layer    Maximum-Flux-Residual          L2-NORM 
          0                 1           2             2    2     1       0.7188634870E-02       2    2    1         0.3750972232E+00      0.6618697837E+00
          0                 2           2             2    2     1      -0.6992600491E-03       2    2    1        -0.3750984829E-01      0.6618708488E-01
          0                 3           1             2    2     1       0.4761699870E-04       2    2    1         0.2625689330E-02      0.4633097635E-02

    ------------------------------------------------
       NWT REQUIRED            3 OUTER ITERATIONS 
       AND A TOTAL OF          5 INNER ITERATIONS.
    ------------------------------------------------

 NO OUTPUT CONTROL FOR STRESS PERIOD    6   TIME STEP    4
 
 SOLVING FOR HEAD 
                                                   Max.-Head-Change                         Max.-Flux-Residual
  Residual-Control   Outer-Iter.   Inner-Iter.     Column Row Layer    Maximum-Head-Change  Column Row Layer    Maximum-Flux-Residual          L2-NORM 
          0                 1           2             2    2     1       0.7148177953E-02       2    2    1         0.3729704117E+00      0.6581015618E+00
          0                 2           2             2    2     1      -0.6953246628E-03       2    2    1        -0.3729716506E-01      0.6581025585E-01
          0                 3           1             2    2     1       0.4734901331E-04       2    2    1         0.2610801503E-02      0.4606717419E-02

    ------------------------------------------------
       NWT REQUIRED            3 OUTER ITERATIONS 
       AND A TOTAL OF          5 INNER ITERATIONS.
    ------------------------------------------------

 NO OUTPUT CONTROL FOR STRESS PERIOD    6   TIME STEP    5
 
 SOLVING FOR HEAD 
                                                   Max.-Head-Change                         Max.-Flux-Residual
  Residual-Control   Outer-Iter.   Inner-Iter.     Column Row Layer    Maximum-Head-Change  Column Row Layer    Maximum-Flux-Residual          L2-NORM 
          0                 1           2             2    2     1       0.7108188439E-02       2    2    1         0.3708682243E+00      0.6544848733E+00
          0                 2           2             2    2     1      -0.6914347434E-03       2    2    1        -0.3708694433E-01      0.6544858842E-01
          0                 3           1             2    2     1       0.4708412456E-04       2    2    1         0.2596086068E-02      0.4581405188E-02

    ------------------------------------------------
       NWT REQUIRED            3 OUTER ITERATIONS 
       AND A TOTAL OF          5 INNER ITERATIONS.
    ------------------------------------------------

 NO OUTPUT CONTROL FOR STRESS PERIOD    6   TIME STEP    6
 
 SOLVING FOR HEAD 
                                                   Max.-Head-Change                         Max.-Flux-Residual
  Residual-Control   Outer-Iter.   Inner-Iter.     Column Row Layer    Maximum-Head-Change  Column Row Layer    Maximum-Flux-Residual          L2-NORM 
          0                 1           2             2    2     1       0.7068745162E-02       2    2    1         0.3687948178E+00      0.6510117492E+00
          0                 2           2             2    2     1      -0.6875979582E-03       2    2    1        -0.3687960171E-01      0.6510127581E-01
          0                 3           1             2    2     1       0.4682285431E-04       2    2    1         0.2581572100E-02      0.4557089351E-02

    ------------------------------------------------
       NWT REQUIRED            3 OUTER ITERATIONS 
       AND A TOTAL OF          5 INNER ITERATIONS.
    ------------------------------------------------

 NO OUTPUT CONTROL FOR STRESS PERIOD    6   TIME STEP    7
 
 SOLVING FOR HEAD 
                                                   Max.-Head-Change                         Max.-Flux-Residual
  Residual-Control   Outer-Iter.   Inner-Iter.     Column Row Layer    Maximum-Head-Change  Column Row Layer    Maximum-Flux-Residual          L2-NORM 
          0                 1           2             2    2     1       0.7029839410E-02       2    2    1         0.3667497332E+00      0.6476803335E+00
          0                 2           2             2    2     1      -0.6838134604E-03       2    2    1        -0.3667509131E-01      0.6476812583E-01
          0                 3           1             2    2     1       0.4656514434E-04       2    2    1         0.2567256396E-02      0.4533769289E-02

    ------------------------------------------------
       NWT REQUIRED            3 OUTER ITERATIONS 
       AND A TOTAL OF          5 INNER ITERATIONS.
    ------------------------------------------------

 NO OUTPUT CONTROL FOR STRESS PERIOD    6   TIME STEP    8
 
 SOLVING FOR HEAD 
                                                   Max.-Head-Change                         Max.-Flux-Residual
  Residual-Control   Outer-Iter.   Inner-Iter.     Column Row Layer    Maximum-Head-Change  Column Row Layer    Maximum-Flux-Residual          L2-NORM 
          0                 1           2             2    2     1       0.6991376348E-02       2    2    1         0.3647279710E+00      0.6444743472E+00
          0                 2           2             2    2     1      -0.6800720250E-03       2    2    1        -0.3647291323E-01      0.6444752433E-01
          0                 3           1             2    2     1       0.4631036674E-04       2    2    1         0.2553103937E-02      0.4511323504E-02

    ------------------------------------------------
       NWT REQUIRED            3 OUTER ITERATIONS 
       AND A TOTAL OF          5 INNER ITERATIONS.
    ------------------------------------------------

 NO OUTPUT CONTROL FOR STRESS PERIOD    6   TIME STEP    9
 
 SOLVING FOR HEAD 
                                                   Max.-Head-Change                         Max.-Flux-Residual
  Residual-Control   Outer-Iter.   Inner-Iter.     Column Row Layer    Maximum-Head-Change  Column Row Layer    Maximum-Flux-Residual          L2-NORM 
          0                 1           2             2    2     1       0.6953434871E-02       2    2    1         0.3627337091E+00      0.6413743468E+00
          0                 2           2             2    2     1      -0.6763813254E-03       2    2    1        -0.3627348518E-01      0.6413752506E-01
          0                 3           1             2    2     1       0.4605904340E-04       2    2    1         0.2539143962E-02      0.4489626012E-02

    ------------------------------------------------
       NWT REQUIRED            3 OUTER ITERATIONS 
       AND A TOTAL OF          5 INNER ITERATIONS.
    ------------------------------------------------

 NO OUTPUT CONTROL FOR STRESS PERIOD    6   TIME STEP   10
 
 SOLVING FOR HEAD 
                                                   Max.-Head-Change                         Max.-Flux-Residual
  Residual-Control   Outer-Iter.   Inner-Iter.     Column Row Layer    Maximum-Head-Change  Column Row Layer    Maximum-Flux-Residual          L2-NORM 
          0                 1           2             2    2     1       0.6916007022E-02       2    2    1         0.3607664909E+00      0.6383844428E+00
          0                 2           2             2    2     1      -0.6727405893E-03       2    2    1        -0.3607676156E-01      0.6383853509E-01
          0                 3           1             2    2     1       0.4581112365E-04       2    2    1         0.2525373333E-02      0.4468700282E-02

    ------------------------------------------------
       NWT REQUIRED            3 OUTER ITERATIONS 
       AND A TOTAL OF          5 INNER ITERATIONS.
    ------------------------------------------------

 NO OUTPUT CONTROL FOR STRESS PERIOD    6   TIME STEP   11
 
 SOLVING FOR HEAD 
                                                   Max.-Head-Change                         Max.-Flux-Residual
  Residual-Control   Outer-Iter.   Inner-Iter.     Column Row Layer    Maximum-Head-Change  Column Row Layer    Maximum-Flux-Residual          L2-NORM 
          0                 1           2             2    2     1       0.6878997682E-02       2    2    1         0.3588213554E+00      0.6355013604E+00
          0                 2           2             2    2     1      -0.6691405634E-03       2    2    1        -0.3588224626E-01      0.6355021822E-01
          0                 3           1             2    2     1       0.4556597558E-04       2    2    1         0.2511757281E-02      0.4448515927E-02

    ------------------------------------------------
       NWT REQUIRED            3 OUTER ITERATIONS 
       AND A TOTAL OF          5 INNER ITERATIONS.
    ------------------------------------------------

 NO OUTPUT CONTROL FOR STRESS PERIOD    6   TIME STEP   12
 
 SOLVING FOR HEAD 
                                                   Max.-Head-Change                         Max.-Flux-Residual
  Residual-Control   Outer-Iter.   Inner-Iter.     Column Row Layer    Maximum-Head-Change  Column Row Layer    Maximum-Flux-Residual          L2-NORM 
          0                 1           2             2    2     1       0.6842573894E-02       2    2    1         0.3569070156E+00      0.6327036629E+00
          0                 2           2             2    2     1      -0.6655974960E-03       2    2    1        -0.3569081056E-01      0.6327045037E-01
          0                 3           1             2    2     1       0.4532470564E-04       2    2    1         0.2498356783E-02      0.4428928908E-02

    ------------------------------------------------
       NWT REQUIRED            3 OUTER ITERATIONS 
       AND A TOTAL OF          5 INNER ITERATIONS.
    ------------------------------------------------

 NO OUTPUT CONTROL FOR STRESS PERIOD    6   TIME STEP   13
 
 SOLVING FOR HEAD 
                                                   Max.-Head-Change                         Max.-Flux-Residual
  Residual-Control   Outer-Iter.   Inner-Iter.     Column Row Layer    Maximum-Head-Change  Column Row Layer    Maximum-Flux-Residual          L2-NORM 
          0                 1           2             2    2     1       0.6806553380E-02       2    2    1         0.3550139391E+00      0.6299991576E+00
          0                 2           2             2    2     1      -0.6620936569E-03       2    2    1        -0.3550150124E-01      0.6299999014E-01
          0                 3           1             2    2     1       0.4508610774E-04       2    2    1         0.2485105146E-02      0.4409992486E-02

    ------------------------------------------------
       NWT REQUIRED            3 OUTER ITERATIONS 
       AND A TOTAL OF          5 INNER ITERATIONS.
    ------------------------------------------------

 NO OUTPUT CONTROL FOR STRESS PERIOD    6   TIME STEP   14
 
 SOLVING FOR HEAD 
                                                   Max.-Head-Change                         Max.-Flux-Residual
  Residual-Control   Outer-Iter.   Inner-Iter.     Column Row Layer    Maximum-Head-Change  Column Row Layer    Maximum-Flux-Residual          L2-NORM 
          0                 1           2             2    2     1       0.6770928691E-02       2    2    1         0.3531417715E+00      0.6273733129E+00
          0                 2           2             2    2     1      -0.6586283211E-03       2    2    1        -0.3531428280E-01      0.6274039068E-01
          0                 3           1             2    2     1       0.4485013194E-04       2    2    1         0.2471999883E-02      0.4391826456E-02

    ------------------------------------------------
       NWT REQUIRED            3 OUTER ITERATIONS 
       AND A TOTAL OF          5 INNER ITERATIONS.
    ------------------------------------------------

 NO OUTPUT CONTROL FOR STRESS PERIOD    6   TIME STEP   15
 
 SOLVING FOR HEAD 
                                                   Max.-Head-Change                         Max.-Flux-Residual
  Residual-Control   Outer-Iter.   Inner-Iter.     Column Row Layer    Maximum-Head-Change  Column Row Layer    Maximum-Flux-Residual          L2-NORM 
          0                 1           2             2    2     1       0.6735867682E-02       2    2    1         0.3512992248E+00      0.6248316665E+00
          0                 2           2             2    2     1      -0.6552178167E-03       2    2    1        -0.3513002653E-01      0.6248324600E-01
          0                 3           1             2    2     1       0.4461788920E-04       2    2    1         0.2459101951E-02      0.4373825568E-02

    ------------------------------------------------
       NWT REQUIRED            3 OUTER ITERATIONS 
       AND A TOTAL OF          5 INNER ITERATIONS.
    ------------------------------------------------

 NO OUTPUT CONTROL FOR STRESS PERIOD    6   TIME STEP   16
 
 SOLVING FOR HEAD 
                                                   Max.-Head-Change                         Max.-Flux-Residual
  Residual-Control   Outer-Iter.   Inner-Iter.     Column Row Layer    Maximum-Head-Change  Column Row Layer    Maximum-Flux-Residual          L2-NORM 
          0                 1           2             2    2     1       0.6701187317E-02       2    2    1         0.3494768059E+00      0.6223573538E+00
          0                 2           2             2    2     1      -0.6518443389E-03       2    2    1        -0.3494778306E-01      0.6223581007E-01
          0                 3           1             2    2     1       0.4438816820E-04       2    2    1         0.2446344911E-02      0.4356506211E-02

    ------------------------------------------------
       NWT REQUIRED            3 OUTER ITERATIONS 
       AND A TOTAL OF          5 INNER ITERATIONS.
    ------------------------------------------------

 NO OUTPUT CONTROL FOR STRESS PERIOD    6   TIME STEP   17
 
 SOLVING FOR HEAD 
                                                   Max.-Head-Change                         Max.-Flux-Residual
  Residual-Control   Outer-Iter.   Inner-Iter.     Column Row Layer    Maximum-Head-Change  Column Row Layer    Maximum-Flux-Residual          L2-NORM 
          0                 1           2             2    2     1       0.6666968689E-02       2    2    1         0.3476786722E+00      0.6199494674E+00
          0                 2           2             2    2     1      -0.6485157760E-03       2    2    1        -0.3476796815E-01      0.6199502250E-01
          0                 3           1             2    2     1       0.4416150550E-04       2    2    1         0.2433757870E-02      0.4339651829E-02

    ------------------------------------------------
       NWT REQUIRED            3 OUTER ITERATIONS 
       AND A TOTAL OF          5 INNER ITERATIONS.
    ------------------------------------------------

 NO OUTPUT CONTROL FOR STRESS PERIOD    6   TIME STEP   18
 
 SOLVING FOR HEAD 
                                                   Max.-Head-Change                         Max.-Flux-Residual
  Residual-Control   Outer-Iter.   Inner-Iter.     Column Row Layer    Maximum-Head-Change  Column Row Layer    Maximum-Flux-Residual          L2-NORM 
          0                 1           2             2    2     1       0.6633117450E-02       2    2    1         0.3458999293E+00      0.6176093660E+00
          0                 2           2             2    2     1      -0.6452229507E-03       2    2    1        -0.3459009235E-01      0.6176100928E-01
          0                 3           1             2    2     1       0.4393727627E-04       2    2    1         0.2421306565E-02      0.4323268907E-02

    ------------------------------------------------
       NWT REQUIRED            3 OUTER ITERATIONS 
       AND A TOTAL OF          5 INNER ITERATIONS.
    ------------------------------------------------

 NO OUTPUT CONTROL FOR STRESS PERIOD    6   TIME STEP   19
 
 SOLVING FOR HEAD 
                                                   Max.-Head-Change                         Max.-Flux-Residual
  Residual-Control   Outer-Iter.   Inner-Iter.     Column Row Layer    Maximum-Head-Change  Column Row Layer    Maximum-Flux-Residual          L2-NORM 
          0                 1           2             2    2     1       0.6599801999E-02       2    2    1         0.3441493345E+00      0.6153353903E+00
          0                 2           2             2    2     1      -0.6419822431E-03       2    2    1        -0.3441503138E-01      0.6153361161E-01
          0                 3           1             2    2     1       0.4371659643E-04       2    2    1         0.2409052318E-02      0.4307353539E-02

    ------------------------------------------------
       NWT REQUIRED            3 OUTER ITERATIONS 
       AND A TOTAL OF          5 INNER ITERATIONS.
    ------------------------------------------------

 NO OUTPUT CONTROL FOR STRESS PERIOD    6   TIME STEP   20
 
 SOLVING FOR HEAD 
                                                   Max.-Head-Change                         Max.-Flux-Residual
  Residual-Control   Outer-Iter.   Inner-Iter.     Column Row Layer    Maximum-Head-Change  Column Row Layer    Maximum-Flux-Residual          L2-NORM 
          0                 1           2             2    2     1       0.6566839689E-02       2    2    1         0.3424174199E+00      0.6131164459E+00
          0                 2           2             2    2     1      -0.6387758877E-03       2    2    1        -0.3424183849E-01      0.6131170934E-01
          0                 3           1             2    2     1       0.4349825564E-04       2    2    1         0.2396928810E-02      0.4291816064E-02

    ------------------------------------------------
       NWT REQUIRED            3 OUTER ITERATIONS 
       AND A TOTAL OF          5 INNER ITERATIONS.
    ------------------------------------------------

 NO OUTPUT CONTROL FOR STRESS PERIOD    6   TIME STEP   21
 
 SOLVING FOR HEAD 
                                                   Max.-Head-Change                         Max.-Flux-Residual
  Residual-Control   Outer-Iter.   Inner-Iter.     Column Row Layer    Maximum-Head-Change  Column Row Layer    Maximum-Flux-Residual          L2-NORM 
          0                 1           2             2    2     1       0.6534311763E-02       2    2    1         0.3407083652E+00      0.6109568324E+00
          0                 2           2             2    2     1      -0.6356117860E-03       2    2    1        -0.3407093160E-01      0.6109575369E-01
          0                 3           1             2    2     1       0.4328279231E-04       2    2    1         0.2384965341E-02      0.4276704429E-02

    ------------------------------------------------
       NWT REQUIRED            3 OUTER ITERATIONS 
       AND A TOTAL OF          5 INNER ITERATIONS.
    ------------------------------------------------

 NO OUTPUT CONTROL FOR STRESS PERIOD    6   TIME STEP   22
 
 SOLVING FOR HEAD 
                                                   Max.-Head-Change                         Max.-Flux-Residual
  Residual-Control   Outer-Iter.   Inner-Iter.     Column Row Layer    Maximum-Head-Change  Column Row Layer    Maximum-Flux-Residual          L2-NORM 
          0                 1           2             2    2     1       0.6502211742E-02       2    2    1         0.3390218328E+00      0.6088512186E+00
          0                 2           2             2    2     1      -0.6324893084E-03       2    2    1        -0.3390227698E-01      0.6088518868E-01
          0                 3           1             2    2     1       0.4307016315E-04       2    2    1         0.2373159520E-02      0.4261962944E-02

    ------------------------------------------------
       NWT REQUIRED            3 OUTER ITERATIONS 
       AND A TOTAL OF          5 INNER ITERATIONS.
    ------------------------------------------------

 NO OUTPUT CONTROL FOR STRESS PERIOD    6   TIME STEP   23
 
 SOLVING FOR HEAD 
                                                   Max.-Head-Change                         Max.-Flux-Residual
  Residual-Control   Outer-Iter.   Inner-Iter.     Column Row Layer    Maximum-Head-Change  Column Row Layer    Maximum-Flux-Residual          L2-NORM 
          0                 1           2             2    2     1       0.6470445843E-02       2    2    1         0.3373529360E+00      0.6067940601E+00
          0                 2           2             2    2     1      -0.6293993321E-03       2    2    1        -0.3373538594E-01      0.6067946962E-01
          0                 3           1             2    2     1       0.4285974760E-04       2    2    1         0.2361477155E-02      0.4247564494E-02

    ------------------------------------------------
       NWT REQUIRED            3 OUTER ITERATIONS 
       AND A TOTAL OF          5 INNER ITERATIONS.
    ------------------------------------------------

 NO OUTPUT CONTROL FOR STRESS PERIOD    6   TIME STEP   24
 
 SOLVING FOR HEAD 
                                                   Max.-Head-Change                         Max.-Flux-Residual
  Residual-Control   Outer-Iter.   Inner-Iter.     Column Row Layer    Maximum-Head-Change  Column Row Layer    Maximum-Flux-Residual          L2-NORM 
          0                 1           2             2    2     1       0.6439095233E-02       2    2    1         0.3357059136E+00      0.6047808880E+00
          0                 2           2             2    2     1      -0.6263497525E-03       2    2    1        -0.3357068237E-01      0.6047815850E-01
          0                 3           1             2    2     1       0.4265208289E-04       2    2    1         0.2349947923E-02      0.4233471184E-02

    ------------------------------------------------
       NWT REQUIRED            3 OUTER ITERATIONS 
       AND A TOTAL OF          5 INNER ITERATIONS.
    ------------------------------------------------

 NO OUTPUT CONTROL FOR STRESS PERIOD    6   TIME STEP   25
 
 SOLVING FOR HEAD 
                                                   Max.-Head-Change                         Max.-Flux-Residual
  Residual-Control   Outer-Iter.   Inner-Iter.     Column Row Layer    Maximum-Head-Change  Column Row Layer    Maximum-Flux-Residual          L2-NORM 
          0                 1           2             2    2     1       0.6408153802E-02       2    2    1         0.3340804235E+00      0.6028250167E+00
          0                 2           2             2    2     1      -0.6233399755E-03       2    2    1        -0.3340813206E-01      0.6028256122E-01
          0                 3           1             2    2     1       0.4244712810E-04       2    2    1         0.2338569403E-02      0.4219776953E-02

    ------------------------------------------------
       NWT REQUIRED            3 OUTER ITERATIONS 
       AND A TOTAL OF          5 INNER ITERATIONS.
    ------------------------------------------------

 NO OUTPUT CONTROL FOR STRESS PERIOD    6   TIME STEP   26
 
 SOLVING FOR HEAD 
                                                   Max.-Head-Change                         Max.-Flux-Residual
  Residual-Control   Outer-Iter.   Inner-Iter.     Column Row Layer    Maximum-Head-Change  Column Row Layer    Maximum-Flux-Residual          L2-NORM 
          0                 1           2             2    2     1       0.6377615491E-02       2    2    1         0.3324761489E+00      0.6009072018E+00
          0                 2           2             2    2     1      -0.6203694112E-03       2    2    1        -0.3324770333E-01      0.6009077849E-01
          0                 3           1             2    2     1       0.4224484369E-04       2    2    1         0.2327339387E-02      0.4206352292E-02

    ------------------------------------------------
       NWT REQUIRED            3 OUTER ITERATIONS 
       AND A TOTAL OF          5 INNER ITERATIONS.
    ------------------------------------------------

 NO OUTPUT CONTROL FOR STRESS PERIOD    6   TIME STEP   27
 
 SOLVING FOR HEAD 
                                                   Max.-Head-Change                         Max.-Flux-Residual
  Residual-Control   Outer-Iter.   Inner-Iter.     Column Row Layer    Maximum-Head-Change  Column Row Layer    Maximum-Flux-Residual          L2-NORM 
          0                 1           2             2    2     1       0.6347386212E-02       2    2    1         0.3308882241E+00      0.5990327625E+00
          0                 2           2             2    2     1      -0.6174289075E-03       2    2    1        -0.3308890958E-01      0.5990333547E-01
          0                 3           1             2    2     1       0.4204460674E-04       2    2    1         0.2316223846E-02      0.4193229483E-02

    ------------------------------------------------
       NWT REQUIRED            3 OUTER ITERATIONS 
       AND A TOTAL OF          5 INNER ITERATIONS.
    ------------------------------------------------

 NO OUTPUT CONTROL FOR STRESS PERIOD    6   TIME STEP   28
 
 SOLVING FOR HEAD 
                                                   Max.-Head-Change                         Max.-Flux-Residual
  Residual-Control   Outer-Iter.   Inner-Iter.     Column Row Layer    Maximum-Head-Change  Column Row Layer    Maximum-Flux-Residual          L2-NORM 
          0                 1           2             2    2     1       0.6317635361E-02       2    2    1         0.3293254253E+00      0.5972012302E+00
          0                 2           2             2    2     1      -0.6145354945E-03       2    2    1        -0.3293262850E-01      0.5972510680E-01
          0                 3           1             2    2     1       0.4184811326E-04       2    2    1         0.2305284177E-02      0.4177222278E-02

    ------------------------------------------------
       NWT REQUIRED            3 OUTER ITERATIONS 
       AND A TOTAL OF          5 INNER ITERATIONS.
    ------------------------------------------------

 NO OUTPUT CONTROL FOR STRESS PERIOD    6   TIME STEP   29
 
 SOLVING FOR HEAD 
                                                   Max.-Head-Change                         Max.-Flux-Residual
  Residual-Control   Outer-Iter.   Inner-Iter.     Column Row Layer    Maximum-Head-Change  Column Row Layer    Maximum-Flux-Residual          L2-NORM 
          0                 1           2             2    2     1       0.5801989707E-02       2    2    1         0.3023620142E+00      0.5560257270E+00
          0                 2           2             2    2     1      -0.5643652698E-03       2    2    1        -0.3023627116E-01      0.5566659488E-01
          0                 3           1             2    2     1       0.3843117224E-04       2    2    1         0.2116539234E-02      0.3896660359E-02

    ------------------------------------------------
       NWT REQUIRED            3 OUTER ITERATIONS 
       AND A TOTAL OF          5 INNER ITERATIONS.
    ------------------------------------------------

 NO OUTPUT CONTROL FOR STRESS PERIOD    6   TIME STEP   30



 STREAM LISTING     PERIOD      6   STEP       30

 LAYER ROW COL. STREAM  RCH.  FLOW INTO     FLOW TO   FLOW OUT OF   OVRLND.     DIRECT     STREAM       STREAM     STREAM     STREAM   STREAMBED  STREAMBED
                SEG.NO.  NO.  STRM. RCH.    AQUIFER    STRM. RCH.    RUNOFF     PRECIP       ET          HEAD       DEPTH      WIDTH   CONDCTNC.   GRADIENT

   1    1    1     1     1    6.9266E+01  4.0352E-01   6.8863E+01  0.000E+00  0.000E+00  0.000E+00  1.09468E+03  1.634E+00  1.935E+01  8.707E-02  1.545E+00
   1    2    2     1     2    6.8863E+01  6.2503E-01   6.8238E+01  0.000E+00  0.000E+00  0.000E+00  1.08969E+03  1.628E+00  1.929E+01  1.350E-01  1.543E+00
   1    3    3     1     3    6.8238E+01  5.3316E-01   6.7704E+01  0.000E+00  0.000E+00  0.000E+00  1.08404E+03  1.622E+00  1.923E+01  1.154E-01  1.541E+00
   1    3    4     1     4    6.7704E+01  4.9106E-01   6.7213E+01  0.000E+00  0.000E+00  0.000E+00  1.07902E+03  1.616E+00  1.917E+01  1.064E-01  1.539E+00
   1    4    5     2     1    6.5213E+01  4.0112E-01   6.4812E+01  0.000E+00  0.000E+00  0.000E+00  1.07408E+03  2.143E+00  1.200E+01  7.800E-02  1.714E+00
   1    5    6     2     2    6.4812E+01  3.0814E-01   6.4504E+01  0.000E+00  0.000E+00  0.000E+00  1.06865E+03  2.136E+00  1.200E+01  6.000E-02  1.712E+00
   1    6    6     2     3    6.4504E+01  3.0777E-01   6.4196E+01  0.000E+00  0.000E+00  0.000E+00  1.06392E+03  2.129E+00  1.200E+01  6.000E-02  1.710E+00
   1    7    6     2     4    6.4196E+01  3.0740E-01   6.3889E+01  0.000E+00  0.000E+00  0.000E+00  1.05920E+03  2.123E+00  1.200E+01  6.000E-02  1.708E+00
   1    8    6     2     5    6.3889E+01  3.0704E-01   6.3582E+01  0.000E+00  0.000E+00  0.000E+00  1.05448E+03  2.117E+00  1.200E+01  6.000E-02  1.706E+00
   1    3    5     3     1    2.0000E+00  2.8252E-01   1.7175E+00  0.000E+00  0.000E+00  0.000E+00  1.07555E+03  1.909E+00  9.636E+00  7.227E-02  1.955E+00
   1    3    6     3     2    1.7175E+00  2.4905E-01   1.4684E+00  0.000E+00  0.000E+00  0.000E+00  1.07264E+03  1.727E+00  8.909E+00  6.682E-02  1.864E+00
   1    3    7     3     3    1.4684E+00  1.9718E-01   1.2712E+00  0.000E+00  0.000E+00  0.000E+00  1.06987E+03  1.555E+00  8.218E+00  5.547E-02  1.777E+00
   1    4    8     3     4    1.2712E+00  2.2567E-01   1.0456E+00  0.000E+00  0.000E+00  0.000E+00  1.06682E+03  1.364E+00  7.455E+00  6.709E-02  1.682E+00
   1    5    8     3     5    1.0456E+00  1.5790E-01   8.8768E-01  0.000E+00  0.000E+00  0.000E+00  1.06362E+03  1.164E+00  6.655E+00  4.991E-02  1.582E+00
   1    6    8     3     6    8.8768E-01  5.5980E-02   8.3170E-01  0.000E+00  0.000E+00  0.000E+00  1.06158E+03  1.036E+00  6.145E+00  1.844E-02  1.518E+00
   1    5   10     4     1    1.0000E+01  9.0919E-02   9.9091E+00  0.000E+00  0.000E+00  0.000E+00  1.07836E+03  6.368E-01  1.000E+01  2.500E-02  1.212E+00
   1    5    9     4     2    9.9091E+00  1.8158E-01   9.7275E+00  0.000E+00  0.000E+00  0.000E+00  1.07154E+03  6.315E-01  1.000E+01  5.000E-02  1.211E+00
   1    6    8     4     3    9.7275E+00  1.2689E-01   9.6006E+00  0.000E+00  0.000E+00  0.000E+00  1.06381E+03  6.256E-01  1.000E+01  3.500E-02  1.209E+00
   1    6    8     5     1    1.0432E+01  2.2686E-01   1.0205E+01  0.000E+00  0.000E+00  0.000E+00  1.05868E+03  6.790E-01  1.542E+01  6.166E-02  1.226E+00
   1    7    7     5     2    1.0205E+01  2.7894E-01   9.9265E+00  0.000E+00  0.000E+00  0.000E+00  1.05417E+03  6.732E-01  1.519E+01  7.594E-02  1.224E+00
   1    8    7     5     3    9.9265E+00  1.9221E-01   9.7343E+00  0.000E+00  0.000E+00  0.000E+00  1.04992E+03  6.676E-01  1.497E+01  5.241E-02  1.223E+00
   1    8    6     5     4    9.7343E+00  1.3577E-01   9.5985E+00  0.000E+00  0.000E+00  0.000E+00  1.04691E+03  6.637E-01  1.482E+01  3.706E-02  1.221E+00
   1    9    6     6     1    9.5985E+00  2.2097E-01   9.3776E+00  0.000E+00  0.000E+00  0.000E+00  1.04341E+03  6.828E-01  1.200E+01  6.000E-02  1.228E+00
   1   10    7     6     2    9.3776E+00  2.2039E-01   9.1572E+00  0.000E+00  0.000E+00  0.000E+00  1.03885E+03  6.732E-01  1.200E+01  6.000E-02  1.224E+00
   1   11    7     6     3    9.1572E+00  2.1981E-01   8.9374E+00  0.000E+00  0.000E+00  0.000E+00  1.03430E+03  6.636E-01  1.200E+01  6.000E-02  1.221E+00
   1   12    7     6     4    8.9374E+00  2.1923E-01   8.7181E+00  0.000E+00  0.000E+00  0.000E+00  1.02974E+03  6.539E-01  1.200E+01  6.000E-02  1.218E+00
   1   13    7     6     5    8.7181E+00 -1.1389E-01   8.8320E+00  0.000E+00  0.000E+00  0.000E+00  1.02656E+03  6.515E-01  1.200E+01  2.400E-01 -1.582E-01
   1   14    9     7     1    1.5000E+02  1.3372E+00   1.4866E+02  0.000E+00  0.000E+00  0.000E+00  1.03987E+03  2.288E+00  5.529E+01  5.593E-01  7.969E-01
   1   13    8     7     2    1.4866E+02  1.8406E+00   1.4682E+02  0.000E+00  0.000E+00  0.000E+00  1.03478E+03  2.279E+00  5.526E+01  6.148E-01  9.980E-01
   1   13    7     7     3    1.4682E+02  1.4824E+00   1.4534E+02  0.000E+00  0.000E+00  0.000E+00  1.02969E+03  2.270E+00  5.522E+01  5.584E-01  8.849E-01
   1   13    6     8     1    1.5417E+02  8.3410E-01   1.5334E+02  0.000E+00  0.000E+00  0.000E+00  1.02472E+03  2.843E+00  4.122E+01  4.201E-01  6.618E-01
   1   13    5     8     2    1.5334E+02  1.0528E-01   1.5323E+02  0.000E+00  0.000E+00  0.000E+00  1.01846E+03  2.840E+00  4.118E+01  4.196E-01  8.363E-02
   1   13    4     8     3    1.5323E+02 -2.6625E+00   1.5589E+02  0.000E+00  0.000E+00  0.000E+00  1.01222E+03  2.849E+00  4.131E+01  4.209E+00 -2.108E-01
   1   13    3     8     4    1.5589E+02 -3.7442E+00   1.5964E+02  0.000E+00  0.000E+00  0.000E+00  1.00600E+03  2.871E+00  4.162E+01  4.242E+00 -2.942E-01
   1   13    2     8     5    1.5964E+02 -2.6004E+00   1.6224E+02  0.000E+00  0.000E+00  0.000E+00  9.99767E+02  2.892E+00  4.194E+01  4.273E+00 -2.028E-01
   1   13    1     8     6    1.6224E+02 -1.9813E+00   1.6422E+02  0.000E+00  0.000E+00  0.000E+00  9.94783E+02  2.908E+00  4.216E+01  2.578E+00 -2.562E-01
   1    8    6     9     1    6.3582E+01  0.0000E+00   6.3582E+01  0.000E+00  0.000E+00  0.000E+00  1.08562E+03  6.875E+00  4.000E+00  0.000E+00  3.292E+00
   1    8    5     9     2    6.3582E+01  0.0000E+00   6.3582E+01  0.000E+00  0.000E+00  0.000E+00  1.08512E+03  6.875E+00  4.000E+00  0.000E+00  3.292E+00





UNSATURATED ZONE PACKAGE VOLUMETRIC BUDGET FOR  TIME STEP    30 STRESS PERIOD    6
  ------------------------------------------------------------------------------



     CUMULATIVE VOLUMES      L**3       RATES FOR THIS TIME STEP      L**3/T
     ------------------                 ------------------------

           IN:                                      IN:
           ---                                      ---
        INFILTRATION =    11217848.3637          INFILTRATION =           0.8475

          OUT:                                     OUT:
          ----                                     ----
              UZF ET =    11060814.7733                UZF ET =           0.8475
        UZF RECHARGE =       73224.0000          UZF RECHARGE =       0.0000E+00

            IN - OUT =       83809.5904              IN - OUT =       0.0000E+00

          STORAGE:                                 STORAGE:
          --------                                 --------
      STORAGE CHANGE =       83809.6438        STORAGE CHANGE =       1.5562E-16

 PERCENT DISCREPANCY IS DIFFERENCE BETWEEN IN-OUT MINUS CHANGE IN STORAGE
 DIVIDED BY THE AVERAGE OF IN AND OUT TIMES 100

 PERCENT DISCREPANCY =           0.00     PERCENT DISCREPANCY =           0.00






1
  VOLUMETRIC BUDGET FOR ENTIRE MODEL AT END OF TIME STEP   30, STRESS PERIOD   6
  ------------------------------------------------------------------------------

     CUMULATIVE VOLUMES      L**3       RATES FOR THIS TIME STEP      L**3/T
     ------------------                 ------------------------

           IN:                                      IN:
           ---                                      ---
             STORAGE     =     8079178.5000               STORAGE     =           0.4907
       CONSTANT HEAD     =           0.0000         CONSTANT HEAD     =           0.0000
     HEAD DEP BOUNDS     =     3782326.0000       HEAD DEP BOUNDS     =           0.2859
      STREAM LEAKAGE     =   156026480.0000        STREAM LEAKAGE     =          12.5657
        UZF RECHARGE     =       73223.9531          UZF RECHARGE     =           0.0000
               GW ET     =           0.0000                 GW ET     =           0.0000
     SURFACE LEAKAGE     =           0.0000       SURFACE LEAKAGE     =           0.0000

                TOTAL IN =   167961200.0000                  TOTAL IN =          13.3422

          OUT:                                     OUT:
          ----                                     ----
             STORAGE     =    17028682.0000               STORAGE     =           1.9534
       CONSTANT HEAD     =           0.0000         CONSTANT HEAD     =           0.0000
     HEAD DEP BOUNDS     =     3798312.0000       HEAD DEP BOUNDS     =           0.2869
      STREAM LEAKAGE     =   147136672.0000        STREAM LEAKAGE     =          11.1023
        UZF RECHARGE     =           0.0000          UZF RECHARGE     =           0.0000
               GW ET     =           0.0000                 GW ET     =           0.0000
     SURFACE LEAKAGE     =           0.0000       SURFACE LEAKAGE     =           0.0000

               TOTAL OUT =   167963664.0000                 TOTAL OUT =          13.3426

                IN - OUT =       -2464.0000                  IN - OUT =      -4.1485E-04

     PERCENT DISCREPANCY =          -0.00         PERCENT DISCREPANCY =          -0.00






         TIME SUMMARY AT END OF TIME STEP   30 IN STRESS PERIOD    6
                    SECONDS     MINUTES      HOURS       DAYS        YEARS
                    -----------------------------------------------------------
   TIME STEP LENGTH  87667.      1461.1      24.352      1.0147     2.77799E-03
 STRESS PERIOD TIME 2.63000E+06  43833.      730.56      30.440     8.33397E-02
         TOTAL TIME 1.32364E+07 2.20607E+05  3676.8      153.20     0.41944    
1
1
                            STRESS PERIOD NO.    7, LENGTH =   2630000.    
                            -----------------------------------------------

                              NUMBER OF TIME STEPS =    30

                               MULTIPLIER FOR DELT =     1.000

                            INITIAL TIME STEP SIZE =   87666.66    

 REUSING NON-PARAMETER GHB CELLS FROM LAST STRESS PERIOD

      2 GHB CELLS

 REUSING STREAM SEGMENT DATA FROM LAST STRESS PERIOD



            AREAL INFILTRATION RATE
 READING ON UNIT   19 WITH FORMAT: (FREE)              

            1           2           3           4           5           6           7           8           9          10
 ........................................................................................................................
   1   1.0000E-10  2.0000E-10   0.000       0.000       0.000       0.000       0.000       0.000       0.000       0.000    
   2   2.0000E-10  1.0000E-10  2.0000E-10   0.000       0.000      8.0000E-10  8.0000E-10  5.0000E-10   0.000       0.000    
   3    0.000      5.0000E-10  1.0000E-10  1.0000E-10  8.0000E-10  8.0000E-10  5.0000E-10  5.0000E-10   0.000       0.000    
   4   8.0000E-10  5.0000E-10  1.0000E-10  1.0000E-10  1.0000E-10  1.0000E-10  1.0000E-10  1.0000E-10  2.0000E-10   0.000    
   5   8.0000E-10  5.0000E-10  1.0000E-10  1.0000E-10  1.0000E-10  1.0000E-10  1.0000E-10  1.0000E-10  1.0000E-10  1.0000E-10
   6   8.0000E-10  5.0000E-10  5.0000E-10  2.0000E-10  2.0000E-10  1.0000E-10  1.0000E-10  1.0000E-10  1.0000E-10  5.0000E-10
   7   8.0000E-10  5.0000E-10  5.0000E-10  2.0000E-10  2.0000E-10  1.0000E-10  1.0000E-10  2.0000E-10  2.0000E-10   0.000    
   8    0.000      5.0000E-10  5.0000E-10  2.0000E-10  2.0000E-10  1.0000E-10  1.0000E-10  2.0000E-10  5.0000E-10   0.000    
   9    0.000      5.0000E-10  5.0000E-10  2.0000E-10  2.0000E-10  1.0000E-10  1.0000E-10  2.0000E-10  5.0000E-10   0.000    
  10    0.000      5.0000E-10  5.0000E-10  2.0000E-10  2.0000E-10  1.0000E-10  1.0000E-10  2.0000E-10  5.0000E-10  8.0000E-10
  11    0.000      1.0000E-10  1.0000E-10  1.0000E-10  1.0000E-10  1.0000E-10  1.0000E-10  2.0000E-10  5.0000E-10   0.000    
  12   1.0000E-10  1.0000E-10  1.0000E-10  1.0000E-10  1.0000E-10  1.0000E-10  1.0000E-10  1.0000E-10  2.0000E-10   0.000    
  13   1.0000E-10  1.0000E-10  2.0000E-10  2.0000E-10  2.0000E-10  2.0000E-10  2.0000E-10  1.0000E-10  1.0000E-10   0.000    
  14    0.000      2.0000E-10  5.0000E-10  5.0000E-10  5.0000E-10  5.0000E-10  5.0000E-10  2.0000E-10  1.0000E-10   0.000    
  15    0.000       0.000      8.0000E-10  8.0000E-10  8.0000E-10  8.0000E-10   0.000       0.000       0.000       0.000    

                  ET RATE =  1.500000E-07

 USING ET EXTINCTION DEPTH FROM PREVIOUS STRESS PERIOD. CURRENT PERIOD IS:       7

 USING EXTINCTION WATER CONTENT FROM PREVIOUS STRESS PERIOD. CURRENT PERIOD IS:       7

 USING AIR ENTRY PRESSURE FROM PREVIOUS STRESS PERIOD. CURRENT PERIOD IS:       7

 USING ROOT PRESSURE HEAD FROM PREVIOUS STRESS PERIOD. CURRENT PERIOD IS:       7

 USING ROOT ACTIVITY FROM PREVIOUS STRESS PERIOD. CURRENT PERIOD IS:       7
 
 SOLVING FOR HEAD 
                                                   Max.-Head-Change                         Max.-Flux-Residual
  Residual-Control   Outer-Iter.   Inner-Iter.     Column Row Layer    Maximum-Head-Change  Column Row Layer    Maximum-Flux-Residual          L2-NORM 
          0                 1           2             2    2     1       0.5071511142E-02       2    2    1         0.2641683202E+00      0.4990425284E+00
          0                 2           2             2    2     1      -0.4933204859E-03       2    2    1        -0.2641688154E-01      0.4990427172E-01
          0                 3           1             2    2     1       0.3359328917E-04       2    2    1         0.1849182042E-02      0.3493294689E-02

    ------------------------------------------------
       NWT REQUIRED            3 OUTER ITERATIONS 
       AND A TOTAL OF          5 INNER ITERATIONS.
    ------------------------------------------------

 NO OUTPUT CONTROL FOR STRESS PERIOD    7   TIME STEP    1
 
 SOLVING FOR HEAD 
                                                   Max.-Head-Change                         Max.-Flux-Residual
  Residual-Control   Outer-Iter.   Inner-Iter.     Column Row Layer    Maximum-Head-Change  Column Row Layer    Maximum-Flux-Residual          L2-NORM 
          0                 1           2             2    2     1       0.5051674202E-02       2    2    1         0.2631268941E+00      0.4979464586E+00
          0                 2           2             2    2     1      -0.4913908839E-03       2    2    1        -0.2631273835E-01      0.4979466565E-01
          0                 3           1             2    2     1       0.3346189053E-04       2    2    1         0.1841892019E-02      0.3485627183E-02

    ------------------------------------------------
       NWT REQUIRED            3 OUTER ITERATIONS 
       AND A TOTAL OF          5 INNER ITERATIONS.
    ------------------------------------------------

 NO OUTPUT CONTROL FOR STRESS PERIOD    7   TIME STEP    2
 
 SOLVING FOR HEAD 
                                                   Max.-Head-Change                         Max.-Flux-Residual
  Residual-Control   Outer-Iter.   Inner-Iter.     Column Row Layer    Maximum-Head-Change  Column Row Layer    Maximum-Flux-Residual          L2-NORM 
          0                 1           2             2    2     1       0.5031995437E-02       2    2    1         0.2620938204E+00      0.4968709115E+00
          0                 2           2             2    2     1      -0.4894766673E-03       2    2    1        -0.2620943038E-01      0.4968711747E-01
          0                 3           1             2    2     1       0.3333153941E-04       2    2    1         0.1834660457E-02      0.3478100902E-02

    ------------------------------------------------
       NWT REQUIRED            3 OUTER ITERATIONS 
       AND A TOTAL OF          5 INNER ITERATIONS.
    ------------------------------------------------

 NO OUTPUT CONTROL FOR STRESS PERIOD    7   TIME STEP    3
 
 SOLVING FOR HEAD 
                                                   Max.-Head-Change                         Max.-Flux-Residual
  Residual-Control   Outer-Iter.   Inner-Iter.     Column Row Layer    Maximum-Head-Change  Column Row Layer    Maximum-Flux-Residual          L2-NORM 
          0                 1           2             2    2     1       0.5012645687E-02       2    2    1         0.2610780530E+00      0.4958086563E+00
          0                 2           2             2    2     1      -0.4875944559E-03       2    2    1        -0.2610785306E-01      0.4958088165E-01
          0                 3           1             2    2     1       0.3320336806E-04       2    2    1         0.1827550064E-02      0.3470658158E-02

    ------------------------------------------------
       NWT REQUIRED            3 OUTER ITERATIONS 
       AND A TOTAL OF          5 INNER ITERATIONS.
    ------------------------------------------------

 NO OUTPUT CONTROL FOR STRESS PERIOD    7   TIME STEP    4
 
 SOLVING FOR HEAD 
                                                   Max.-Head-Change                         Max.-Flux-Residual
  Residual-Control   Outer-Iter.   Inner-Iter.     Column Row Layer    Maximum-Head-Change  Column Row Layer    Maximum-Flux-Residual          L2-NORM 
          0                 1           2             2    2     1       0.4993446203E-02       2    2    1         0.2600702393E+00      0.4947669463E+00
          0                 2           2             2    2     1      -0.4857268612E-03       2    2    1        -0.2600707113E-01      0.4947672163E-01
          0                 3           1             2    2     1       0.3307619167E-04       2    2    1         0.1820495329E-02      0.3463365947E-02

    ------------------------------------------------
       NWT REQUIRED            3 OUTER ITERATIONS 
       AND A TOTAL OF          5 INNER ITERATIONS.
    ------------------------------------------------

 OUTPUT CONTROL FOR STRESS PERIOD    7   TIME STEP    5
    PRINT BUDGET
    SAVE BUDGET
 UBDSV1 SAVING "         STORAGE" ON UNIT 102 AT TIME STEP 5, STRESS PERIOD 7
 UBDSV2 SAVING "   CONSTANT HEAD" ON UNIT 102 AT TIME STEP 5, STRESS PERIOD 7
 UBDSV1 SAVING "FLOW RIGHT FACE " ON UNIT 102 AT TIME STEP 5, STRESS PERIOD 7
 UBDSV1 SAVING "FLOW FRONT FACE " ON UNIT 102 AT TIME STEP 5, STRESS PERIOD 7

  HEAD DEP BOUNDS   PERIOD    7   STEP     5
 BOUNDARY      1   LAYER   1   ROW    13   COL     1   RATE   -0.286944    
 BOUNDARY      2   LAYER   1   ROW    14   COL     9   RATE    0.285859    



 STREAM LISTING     PERIOD      7   STEP        5

 LAYER ROW COL. STREAM  RCH.  FLOW INTO     FLOW TO   FLOW OUT OF   OVRLND.     DIRECT     STREAM       STREAM     STREAM     STREAM   STREAMBED  STREAMBED
                SEG.NO.  NO.  STRM. RCH.    AQUIFER    STRM. RCH.    RUNOFF     PRECIP       ET          HEAD       DEPTH      WIDTH   CONDCTNC.   GRADIENT

   1    1    1     1     1    6.2250E+01  3.7978E-01   6.1870E+01  0.000E+00  0.000E+00  0.000E+00  1.09460E+03  1.553E+00  1.854E+01  8.342E-02  1.518E+00
   1    2    2     1     2    6.1870E+01  5.8817E-01   6.1282E+01  0.000E+00  0.000E+00  0.000E+00  1.08961E+03  1.547E+00  1.848E+01  1.294E-01  1.516E+00
   1    3    3     1     3    6.1282E+01  5.0163E-01   6.0781E+01  0.000E+00  0.000E+00  0.000E+00  1.08396E+03  1.540E+00  1.841E+01  1.105E-01  1.513E+00
   1    3    4     1     4    6.0781E+01  4.6194E-01   6.0319E+01  0.000E+00  0.000E+00  0.000E+00  1.07894E+03  1.534E+00  1.836E+01  1.019E-01  1.511E+00
   1    4    5     2     1    5.8319E+01  3.9026E-01   5.7928E+01  0.000E+00  0.000E+00  0.000E+00  1.07394E+03  2.003E+00  1.200E+01  7.800E-02  1.668E+00
   1    5    6     2     2    5.7928E+01  2.9977E-01   5.7629E+01  0.000E+00  0.000E+00  0.000E+00  1.06851E+03  1.996E+00  1.200E+01  6.000E-02  1.665E+00
   1    6    6     2     3    5.7629E+01  2.9940E-01   5.7329E+01  0.000E+00  0.000E+00  0.000E+00  1.06378E+03  1.990E+00  1.200E+01  6.000E-02  1.663E+00
   1    7    6     2     4    5.7329E+01  2.9903E-01   5.7030E+01  0.000E+00  0.000E+00  0.000E+00  1.05906E+03  1.984E+00  1.200E+01  6.000E-02  1.661E+00
   1    8    6     2     5    5.7030E+01  2.9865E-01   5.6732E+01  0.000E+00  0.000E+00  0.000E+00  1.05434E+03  1.978E+00  1.200E+01  6.000E-02  1.659E+00
   1    3    5     3     1    2.0000E+00  2.8252E-01   1.7175E+00  0.000E+00  0.000E+00  0.000E+00  1.07555E+03  1.909E+00  9.636E+00  7.227E-02  1.955E+00
   1    3    6     3     2    1.7175E+00  2.4905E-01   1.4684E+00  0.000E+00  0.000E+00  0.000E+00  1.07264E+03  1.727E+00  8.909E+00  6.682E-02  1.864E+00
   1    3    7     3     3    1.4684E+00  1.9718E-01   1.2712E+00  0.000E+00  0.000E+00  0.000E+00  1.06987E+03  1.555E+00  8.218E+00  5.547E-02  1.777E+00
   1    4    8     3     4    1.2712E+00  2.2567E-01   1.0456E+00  0.000E+00  0.000E+00  0.000E+00  1.06682E+03  1.364E+00  7.455E+00  6.709E-02  1.682E+00
   1    5    8     3     5    1.0456E+00  1.5790E-01   8.8768E-01  0.000E+00  0.000E+00  0.000E+00  1.06362E+03  1.164E+00  6.655E+00  4.991E-02  1.582E+00
   1    6    8     3     6    8.8768E-01  5.5980E-02   8.3170E-01  0.000E+00  0.000E+00  0.000E+00  1.06158E+03  1.036E+00  6.145E+00  1.844E-02  1.518E+00
   1    5   10     4     1    1.0000E+01  9.0919E-02   9.9091E+00  0.000E+00  0.000E+00  0.000E+00  1.07836E+03  6.368E-01  1.000E+01  2.500E-02  1.212E+00
   1    5    9     4     2    9.9091E+00  1.8158E-01   9.7275E+00  0.000E+00  0.000E+00  0.000E+00  1.07154E+03  6.315E-01  1.000E+01  5.000E-02  1.211E+00
   1    6    8     4     3    9.7275E+00  1.2689E-01   9.6006E+00  0.000E+00  0.000E+00  0.000E+00  1.06381E+03  6.256E-01  1.000E+01  3.500E-02  1.209E+00
   1    6    8     5     1    1.0432E+01  2.2686E-01   1.0205E+01  0.000E+00  0.000E+00  0.000E+00  1.05868E+03  6.790E-01  1.542E+01  6.166E-02  1.226E+00
   1    7    7     5     2    1.0205E+01  2.7894E-01   9.9265E+00  0.000E+00  0.000E+00  0.000E+00  1.05417E+03  6.732E-01  1.519E+01  7.594E-02  1.224E+00
   1    8    7     5     3    9.9265E+00  1.9221E-01   9.7343E+00  0.000E+00  0.000E+00  0.000E+00  1.04992E+03  6.676E-01  1.497E+01  5.241E-02  1.223E+00
   1    8    6     5     4    9.7343E+00  1.3577E-01   9.5985E+00  0.000E+00  0.000E+00  0.000E+00  1.04691E+03  6.637E-01  1.482E+01  3.706E-02  1.221E+00
   1    9    6     6     1    9.5985E+00  2.2097E-01   9.3776E+00  0.000E+00  0.000E+00  0.000E+00  1.04341E+03  6.828E-01  1.200E+01  6.000E-02  1.228E+00
   1   10    7     6     2    9.3776E+00  2.2039E-01   9.1572E+00  0.000E+00  0.000E+00  0.000E+00  1.03885E+03  6.732E-01  1.200E+01  6.000E-02  1.224E+00
   1   11    7     6     3    9.1572E+00  2.1981E-01   8.9374E+00  0.000E+00  0.000E+00  0.000E+00  1.03430E+03  6.636E-01  1.200E+01  6.000E-02  1.221E+00
   1   12    7     6     4    8.9374E+00  2.1923E-01   8.7181E+00  0.000E+00  0.000E+00  0.000E+00  1.02974E+03  6.539E-01  1.200E+01  6.000E-02  1.218E+00
   1   13    7     6     5    8.7181E+00 -1.1384E-01   8.8320E+00  0.000E+00  0.000E+00  0.000E+00  1.02656E+03  6.515E-01  1.200E+01  2.400E-01 -1.581E-01
   1   14    9     7     1    1.5000E+02  1.3373E+00   1.4866E+02  0.000E+00  0.000E+00  0.000E+00  1.03987E+03  2.288E+00  5.529E+01  5.593E-01  7.970E-01
   1   13    8     7     2    1.4866E+02  1.8407E+00   1.4682E+02  0.000E+00  0.000E+00  0.000E+00  1.03478E+03  2.279E+00  5.526E+01  6.148E-01  9.980E-01
   1   13    7     7     3    1.4682E+02  1.4826E+00   1.4534E+02  0.000E+00  0.000E+00  0.000E+00  1.02969E+03  2.270E+00  5.522E+01  5.584E-01  8.849E-01
   1   13    6     8     1    1.5417E+02  8.3423E-01   1.5334E+02  0.000E+00  0.000E+00  0.000E+00  1.02472E+03  2.843E+00  4.122E+01  4.201E-01  6.619E-01
   1   13    5     8     2    1.5334E+02  1.0538E-01   1.5323E+02  0.000E+00  0.000E+00  0.000E+00  1.01846E+03  2.840E+00  4.118E+01  4.196E-01  8.371E-02
   1   13    4     8     3    1.5323E+02 -2.6622E+00   1.5589E+02  0.000E+00  0.000E+00  0.000E+00  1.01222E+03  2.849E+00  4.131E+01  4.209E+00 -2.108E-01
   1   13    3     8     4    1.5589E+02 -3.7440E+00   1.5964E+02  0.000E+00  0.000E+00  0.000E+00  1.00600E+03  2.871E+00  4.162E+01  4.242E+00 -2.942E-01
   1   13    2     8     5    1.5964E+02 -2.6003E+00   1.6224E+02  0.000E+00  0.000E+00  0.000E+00  9.99767E+02  2.892E+00  4.194E+01  4.273E+00 -2.028E-01
   1   13    1     8     6    1.6224E+02 -1.9812E+00   1.6422E+02  0.000E+00  0.000E+00  0.000E+00  9.94783E+02  2.908E+00  4.216E+01  2.578E+00 -2.562E-01
   1    8    6     9     1    5.6732E+01  0.0000E+00   5.6732E+01  0.000E+00  0.000E+00  0.000E+00  1.08517E+03  6.420E+00  4.000E+00  0.000E+00  3.140E+00
   1    8    5     9     2    5.6732E+01  0.0000E+00   5.6732E+01  0.000E+00  0.000E+00  0.000E+00  1.08467E+03  6.420E+00  4.000E+00  0.000E+00  3.140E+00



 UBDSV3 SAVING "           GW ET" ON UNIT  61 AT TIME STEP 5, STRESS PERIOD 7
 UBDSV3 SAVING "    UZF RECHARGE" ON UNIT  61 AT TIME STEP 5, STRESS PERIOD 7
 UBDSV3 SAVING " SURFACE LEAKAGE" ON UNIT  61 AT TIME STEP 5, STRESS PERIOD 7
 UBDSV3 SAVING "       HORT+DUNN" ON UNIT  61 AT TIME STEP 5, STRESS PERIOD 7
 UBDSV3 SAVING "  STORAGE CHANGE" ON UNIT  61 AT TIME STEP 5, STRESS PERIOD 7


UNSATURATED ZONE PACKAGE VOLUMETRIC BUDGET FOR  TIME STEP     5 STRESS PERIOD    7
  ------------------------------------------------------------------------------



     CUMULATIVE VOLUMES      L**3       RATES FOR THIS TIME STEP      L**3/T
     ------------------                 ------------------------

           IN:                                      IN:
           ---                                      ---
        INFILTRATION =    11589335.8425          INFILTRATION =           0.8475

          OUT:                                     OUT:
          ----                                     ----
              UZF ET =    11432302.2521                UZF ET =           0.8475
        UZF RECHARGE =       73224.0000          UZF RECHARGE =       0.0000E+00

            IN - OUT =       83809.5904              IN - OUT =       0.0000E+00

          STORAGE:                                 STORAGE:
          --------                                 --------
      STORAGE CHANGE =       83809.6438        STORAGE CHANGE =       1.1412E-16

 PERCENT DISCREPANCY IS DIFFERENCE BETWEEN IN-OUT MINUS CHANGE IN STORAGE
 DIVIDED BY THE AVERAGE OF IN AND OUT TIMES 100

 PERCENT DISCREPANCY =           0.00     PERCENT DISCREPANCY =           0.00






1
  VOLUMETRIC BUDGET FOR ENTIRE MODEL AT END OF TIME STEP    5, STRESS PERIOD   7
  ------------------------------------------------------------------------------

     CUMULATIVE VOLUMES      L**3       RATES FOR THIS TIME STEP      L**3/T
     ------------------                 ------------------------

           IN:                                      IN:
           ---                                      ---
             STORAGE     =     8292651.5000               STORAGE     =           0.4846
       CONSTANT HEAD     =           0.0000         CONSTANT HEAD     =           0.0000
     HEAD DEP BOUNDS     =     3907626.2500       HEAD DEP BOUNDS     =           0.2859
      STREAM LEAKAGE     =   161462016.0000        STREAM LEAKAGE     =          12.4007
        UZF RECHARGE     =       73223.9531          UZF RECHARGE     =           0.0000
               GW ET     =           0.0000                 GW ET     =           0.0000
     SURFACE LEAKAGE     =           0.0000       SURFACE LEAKAGE     =           0.0000

                TOTAL IN =   173735504.0000                  TOTAL IN =          13.1711

          OUT:                                     OUT:
          ----                                     ----
             STORAGE     =    17811068.0000               STORAGE     =           1.7830
       CONSTANT HEAD     =           0.0000         CONSTANT HEAD     =           0.0000
     HEAD DEP BOUNDS     =     3924089.5000       HEAD DEP BOUNDS     =           0.2869
      STREAM LEAKAGE     =   152002976.0000        STREAM LEAKAGE     =          11.1015
        UZF RECHARGE     =           0.0000          UZF RECHARGE     =           0.0000
               GW ET     =           0.0000                 GW ET     =           0.0000
     SURFACE LEAKAGE     =           0.0000       SURFACE LEAKAGE     =           0.0000

               TOTAL OUT =   173738128.0000                 TOTAL OUT =          13.1715

                IN - OUT =       -2624.0000                  IN - OUT =      -3.6812E-04

     PERCENT DISCREPANCY =          -0.00         PERCENT DISCREPANCY =          -0.00






         TIME SUMMARY AT END OF TIME STEP    5 IN STRESS PERIOD    7
                    SECONDS     MINUTES      HOURS       DAYS        YEARS
                    -----------------------------------------------------------
   TIME STEP LENGTH  87667.      1461.1      24.352      1.0147     2.77799E-03
 STRESS PERIOD TIME 4.38333E+05  7305.6      121.76      5.0733     1.38899E-02
         TOTAL TIME 1.36747E+07 2.27912E+05  3798.5      158.27     0.43333    
1
 
 SOLVING FOR HEAD 
                                                   Max.-Head-Change                         Max.-Flux-Residual
  Residual-Control   Outer-Iter.   Inner-Iter.     Column Row Layer    Maximum-Head-Change  Column Row Layer    Maximum-Flux-Residual          L2-NORM 
          0                 1           2             2    2     1       0.4974480962E-02       2    2    1         0.2590747693E+00      0.4937387373E+00
          0                 2           2             2    2     1      -0.4838820517E-03       2    2    1        -0.2590752357E-01      0.4937389547E-01
          0                 3           1             2    2     1       0.3295056716E-04       2    2    1         0.1813526987E-02      0.3456170811E-02

    ------------------------------------------------
       NWT REQUIRED            3 OUTER ITERATIONS 
       AND A TOTAL OF          5 INNER ITERATIONS.
    ------------------------------------------------

 NO OUTPUT CONTROL FOR STRESS PERIOD    7   TIME STEP    6
 
 SOLVING FOR HEAD 
                                                   Max.-Head-Change                         Max.-Flux-Residual
  Residual-Control   Outer-Iter.   Inner-Iter.     Column Row Layer    Maximum-Head-Change  Column Row Layer    Maximum-Flux-Residual          L2-NORM 
          0                 1           2             2    2     1       0.4955833221E-02       2    2    1         0.2580959978E+00      0.4927287478E+00
          0                 2           2             2    2     1      -0.4820681267E-03       2    2    1        -0.2580964588E-01      0.4927289183E-01
          0                 3           1             2    2     1       0.3282704548E-04       2    2    1         0.1806675554E-02      0.3449099761E-02

    ------------------------------------------------
       NWT REQUIRED            3 OUTER ITERATIONS 
       AND A TOTAL OF          5 INNER ITERATIONS.
    ------------------------------------------------

 NO OUTPUT CONTROL FOR STRESS PERIOD    7   TIME STEP    7
 
 SOLVING FOR HEAD 
                                                   Max.-Head-Change                         Max.-Flux-Residual
  Residual-Control   Outer-Iter.   Inner-Iter.     Column Row Layer    Maximum-Head-Change  Column Row Layer    Maximum-Flux-Residual          L2-NORM 
          0                 1           2             2    2     1       0.4937237344E-02       2    2    1         0.2571200287E+00      0.4917271199E+00
          0                 2           2             2    2     1      -0.4802592473E-03       2    2    1        -0.2571204844E-01      0.4917273449E-01
          0                 3           1             2    2     1       0.3270386770E-04       2    2    1         0.1799843743E-02      0.3442092597E-02

    ------------------------------------------------
       NWT REQUIRED            3 OUTER ITERATIONS 
       AND A TOTAL OF          5 INNER ITERATIONS.
    ------------------------------------------------

 NO OUTPUT CONTROL FOR STRESS PERIOD    7   TIME STEP    8
 
 SOLVING FOR HEAD 
                                                   Max.-Head-Change                         Max.-Flux-Residual
  Residual-Control   Outer-Iter.   Inner-Iter.     Column Row Layer    Maximum-Head-Change  Column Row Layer    Maximum-Flux-Residual          L2-NORM 
          0                 1           2             2    2     1       0.4918952765E-02       2    2    1         0.2561604085E+00      0.4907435469E+00
          0                 2           2             2    2     1      -0.4784806482E-03       2    2    1        -0.2561608589E-01      0.4907436911E-01
          0                 3           1             2    2     1       0.3258275157E-04       2    2    1         0.1793126351E-02      0.3435201898E-02

    ------------------------------------------------
       NWT REQUIRED            3 OUTER ITERATIONS 
       AND A TOTAL OF          5 INNER ITERATIONS.
    ------------------------------------------------

 NO OUTPUT CONTROL FOR STRESS PERIOD    7   TIME STEP    9
 
 SOLVING FOR HEAD 
                                                   Max.-Head-Change                         Max.-Flux-Residual
  Residual-Control   Outer-Iter.   Inner-Iter.     Column Row Layer    Maximum-Head-Change  Column Row Layer    Maximum-Flux-Residual          L2-NORM 
          0                 1           2             2    2     1       0.4900888112E-02       2    2    1         0.2552123754E+00      0.4897764036E+00
          0                 2           2             2    2     1      -0.4767234426E-03       2    2    1        -0.2552128207E-01      0.4897765729E-01
          0                 3           1             2    2     1       0.3246309264E-04       2    2    1         0.1786490102E-02      0.3428434144E-02

    ------------------------------------------------
       NWT REQUIRED            3 OUTER ITERATIONS 
       AND A TOTAL OF          5 INNER ITERATIONS.
    ------------------------------------------------

 OUTPUT CONTROL FOR STRESS PERIOD    7   TIME STEP   10
    PRINT BUDGET
    SAVE BUDGET
 UBDSV1 SAVING "         STORAGE" ON UNIT 102 AT TIME STEP 10, STRESS PERIOD 7
 UBDSV2 SAVING "   CONSTANT HEAD" ON UNIT 102 AT TIME STEP 10, STRESS PERIOD 7
 UBDSV1 SAVING "FLOW RIGHT FACE " ON UNIT 102 AT TIME STEP 10, STRESS PERIOD 7
 UBDSV1 SAVING "FLOW FRONT FACE " ON UNIT 102 AT TIME STEP 10, STRESS PERIOD 7

  HEAD DEP BOUNDS   PERIOD    7   STEP    10
 BOUNDARY      1   LAYER   1   ROW    13   COL     1   RATE   -0.286943    
 BOUNDARY      2   LAYER   1   ROW    14   COL     9   RATE    0.285865    



 STREAM LISTING     PERIOD      7   STEP       10

 LAYER ROW COL. STREAM  RCH.  FLOW INTO     FLOW TO   FLOW OUT OF   OVRLND.     DIRECT     STREAM       STREAM     STREAM     STREAM   STREAMBED  STREAMBED
                SEG.NO.  NO.  STRM. RCH.    AQUIFER    STRM. RCH.    RUNOFF     PRECIP       ET          HEAD       DEPTH      WIDTH   CONDCTNC.   GRADIENT

   1    1    1     1     1    6.2250E+01  3.7978E-01   6.1870E+01  0.000E+00  0.000E+00  0.000E+00  1.09460E+03  1.553E+00  1.854E+01  8.342E-02  1.518E+00
   1    2    2     1     2    6.1870E+01  5.8817E-01   6.1282E+01  0.000E+00  0.000E+00  0.000E+00  1.08961E+03  1.547E+00  1.848E+01  1.294E-01  1.516E+00
   1    3    3     1     3    6.1282E+01  5.0163E-01   6.0781E+01  0.000E+00  0.000E+00  0.000E+00  1.08396E+03  1.540E+00  1.841E+01  1.105E-01  1.513E+00
   1    3    4     1     4    6.0781E+01  4.6194E-01   6.0319E+01  0.000E+00  0.000E+00  0.000E+00  1.07894E+03  1.534E+00  1.836E+01  1.019E-01  1.511E+00
   1    4    5     2     1    5.8319E+01  3.9026E-01   5.7928E+01  0.000E+00  0.000E+00  0.000E+00  1.07394E+03  2.003E+00  1.200E+01  7.800E-02  1.668E+00
   1    5    6     2     2    5.7928E+01  2.9977E-01   5.7629E+01  0.000E+00  0.000E+00  0.000E+00  1.06851E+03  1.996E+00  1.200E+01  6.000E-02  1.665E+00
   1    6    6     2     3    5.7629E+01  2.9940E-01   5.7329E+01  0.000E+00  0.000E+00  0.000E+00  1.06378E+03  1.990E+00  1.200E+01  6.000E-02  1.663E+00
   1    7    6     2     4    5.7329E+01  2.9903E-01   5.7030E+01  0.000E+00  0.000E+00  0.000E+00  1.05906E+03  1.984E+00  1.200E+01  6.000E-02  1.661E+00
   1    8    6     2     5    5.7030E+01  2.9865E-01   5.6732E+01  0.000E+00  0.000E+00  0.000E+00  1.05434E+03  1.978E+00  1.200E+01  6.000E-02  1.659E+00
   1    3    5     3     1    2.0000E+00  2.8252E-01   1.7175E+00  0.000E+00  0.000E+00  0.000E+00  1.07555E+03  1.909E+00  9.636E+00  7.227E-02  1.955E+00
   1    3    6     3     2    1.7175E+00  2.4905E-01   1.4684E+00  0.000E+00  0.000E+00  0.000E+00  1.07264E+03  1.727E+00  8.909E+00  6.682E-02  1.864E+00
   1    3    7     3     3    1.4684E+00  1.9718E-01   1.2712E+00  0.000E+00  0.000E+00  0.000E+00  1.06987E+03  1.555E+00  8.218E+00  5.547E-02  1.777E+00
   1    4    8     3     4    1.2712E+00  2.2567E-01   1.0456E+00  0.000E+00  0.000E+00  0.000E+00  1.06682E+03  1.364E+00  7.455E+00  6.709E-02  1.682E+00
   1    5    8     3     5    1.0456E+00  1.5790E-01   8.8768E-01  0.000E+00  0.000E+00  0.000E+00  1.06362E+03  1.164E+00  6.655E+00  4.991E-02  1.582E+00
   1    6    8     3     6    8.8768E-01  5.5980E-02   8.3170E-01  0.000E+00  0.000E+00  0.000E+00  1.06158E+03  1.036E+00  6.145E+00  1.844E-02  1.518E+00
   1    5   10     4     1    1.0000E+01  9.0919E-02   9.9091E+00  0.000E+00  0.000E+00  0.000E+00  1.07836E+03  6.368E-01  1.000E+01  2.500E-02  1.212E+00
   1    5    9     4     2    9.9091E+00  1.8158E-01   9.7275E+00  0.000E+00  0.000E+00  0.000E+00  1.07154E+03  6.315E-01  1.000E+01  5.000E-02  1.211E+00
   1    6    8     4     3    9.7275E+00  1.2689E-01   9.6006E+00  0.000E+00  0.000E+00  0.000E+00  1.06381E+03  6.256E-01  1.000E+01  3.500E-02  1.209E+00
   1    6    8     5     1    1.0432E+01  2.2686E-01   1.0205E+01  0.000E+00  0.000E+00  0.000E+00  1.05868E+03  6.790E-01  1.542E+01  6.166E-02  1.226E+00
   1    7    7     5     2    1.0205E+01  2.7894E-01   9.9265E+00  0.000E+00  0.000E+00  0.000E+00  1.05417E+03  6.732E-01  1.519E+01  7.594E-02  1.224E+00
   1    8    7     5     3    9.9265E+00  1.9221E-01   9.7343E+00  0.000E+00  0.000E+00  0.000E+00  1.04992E+03  6.676E-01  1.497E+01  5.241E-02  1.223E+00
   1    8    6     5     4    9.7343E+00  1.3577E-01   9.5985E+00  0.000E+00  0.000E+00  0.000E+00  1.04691E+03  6.637E-01  1.482E+01  3.706E-02  1.221E+00
   1    9    6     6     1    9.5985E+00  2.2097E-01   9.3776E+00  0.000E+00  0.000E+00  0.000E+00  1.04341E+03  6.828E-01  1.200E+01  6.000E-02  1.228E+00
   1   10    7     6     2    9.3776E+00  2.2039E-01   9.1572E+00  0.000E+00  0.000E+00  0.000E+00  1.03885E+03  6.732E-01  1.200E+01  6.000E-02  1.224E+00
   1   11    7     6     3    9.1572E+00  2.1981E-01   8.9374E+00  0.000E+00  0.000E+00  0.000E+00  1.03430E+03  6.636E-01  1.200E+01  6.000E-02  1.221E+00
   1   12    7     6     4    8.9374E+00  2.1923E-01   8.7181E+00  0.000E+00  0.000E+00  0.000E+00  1.02974E+03  6.539E-01  1.200E+01  6.000E-02  1.218E+00
   1   13    7     6     5    8.7181E+00 -1.1378E-01   8.8319E+00  0.000E+00  0.000E+00  0.000E+00  1.02656E+03  6.515E-01  1.200E+01  2.400E-01 -1.580E-01
   1   14    9     7     1    1.5000E+02  1.3374E+00   1.4866E+02  0.000E+00  0.000E+00  0.000E+00  1.03987E+03  2.288E+00  5.529E+01  5.593E-01  7.971E-01
   1   13    8     7     2    1.4866E+02  1.8408E+00   1.4682E+02  0.000E+00  0.000E+00  0.000E+00  1.03478E+03  2.279E+00  5.526E+01  6.148E-01  9.981E-01
   1   13    7     7     3    1.4682E+02  1.4827E+00   1.4534E+02  0.000E+00  0.000E+00  0.000E+00  1.02969E+03  2.270E+00  5.522E+01  5.584E-01  8.850E-01
   1   13    6     8     1    1.5417E+02  8.3435E-01   1.5334E+02  0.000E+00  0.000E+00  0.000E+00  1.02472E+03  2.843E+00  4.122E+01  4.201E-01  6.620E-01
   1   13    5     8     2    1.5334E+02  1.0548E-01   1.5323E+02  0.000E+00  0.000E+00  0.000E+00  1.01846E+03  2.840E+00  4.118E+01  4.196E-01  8.379E-02
   1   13    4     8     3    1.5323E+02 -2.6618E+00   1.5589E+02  0.000E+00  0.000E+00  0.000E+00  1.01222E+03  2.849E+00  4.131E+01  4.209E+00 -2.108E-01
   1   13    3     8     4    1.5589E+02 -3.7438E+00   1.5964E+02  0.000E+00  0.000E+00  0.000E+00  1.00600E+03  2.871E+00  4.162E+01  4.242E+00 -2.942E-01
   1   13    2     8     5    1.5964E+02 -2.6002E+00   1.6224E+02  0.000E+00  0.000E+00  0.000E+00  9.99767E+02  2.892E+00  4.194E+01  4.273E+00 -2.028E-01
   1   13    1     8     6    1.6224E+02 -1.9812E+00   1.6422E+02  0.000E+00  0.000E+00  0.000E+00  9.94783E+02  2.908E+00  4.216E+01  2.578E+00 -2.562E-01
   1    8    6     9     1    5.6732E+01  0.0000E+00   5.6732E+01  0.000E+00  0.000E+00  0.000E+00  1.08517E+03  6.420E+00  4.000E+00  0.000E+00  3.140E+00
   1    8    5     9     2    5.6732E+01  0.0000E+00   5.6732E+01  0.000E+00  0.000E+00  0.000E+00  1.08467E+03  6.420E+00  4.000E+00  0.000E+00  3.140E+00



 UBDSV3 SAVING "           GW ET" ON UNIT  61 AT TIME STEP 10, STRESS PERIOD 7
 UBDSV3 SAVING "    UZF RECHARGE" ON UNIT  61 AT TIME STEP 10, STRESS PERIOD 7
 UBDSV3 SAVING " SURFACE LEAKAGE" ON UNIT  61 AT TIME STEP 10, STRESS PERIOD 7
 UBDSV3 SAVING "       HORT+DUNN" ON UNIT  61 AT TIME STEP 10, STRESS PERIOD 7
 UBDSV3 SAVING "  STORAGE CHANGE" ON UNIT  61 AT TIME STEP 10, STRESS PERIOD 7


UNSATURATED ZONE PACKAGE VOLUMETRIC BUDGET FOR  TIME STEP    10 STRESS PERIOD    7
  ------------------------------------------------------------------------------



     CUMULATIVE VOLUMES      L**3       RATES FOR THIS TIME STEP      L**3/T
     ------------------                 ------------------------

           IN:                                      IN:
           ---                                      ---
        INFILTRATION =    11960823.3213          INFILTRATION =           0.8475

          OUT:                                     OUT:
          ----                                     ----
              UZF ET =    11803789.7309                UZF ET =           0.8475
        UZF RECHARGE =       73224.0000          UZF RECHARGE =       0.0000E+00

            IN - OUT =       83809.5904              IN - OUT =       0.0000E+00

          STORAGE:                                 STORAGE:
          --------                                 --------
      STORAGE CHANGE =       83809.6438        STORAGE CHANGE =       0.0000E+00

 PERCENT DISCREPANCY IS DIFFERENCE BETWEEN IN-OUT MINUS CHANGE IN STORAGE
 DIVIDED BY THE AVERAGE OF IN AND OUT TIMES 100

 PERCENT DISCREPANCY =           0.00     PERCENT DISCREPANCY =           0.00






1
  VOLUMETRIC BUDGET FOR ENTIRE MODEL AT END OF TIME STEP   10, STRESS PERIOD   7
  ------------------------------------------------------------------------------

     CUMULATIVE VOLUMES      L**3       RATES FOR THIS TIME STEP      L**3/T
     ------------------                 ------------------------

           IN:                                      IN:
           ---                                      ---
             STORAGE     =     8503457.0000               STORAGE     =           0.4785
       CONSTANT HEAD     =           0.0000         CONSTANT HEAD     =           0.0000
     HEAD DEP BOUNDS     =     4032929.2500       HEAD DEP BOUNDS     =           0.2859
      STREAM LEAKAGE     =   166897792.0000        STREAM LEAKAGE     =          12.4012
        UZF RECHARGE     =       73223.9531          UZF RECHARGE     =           0.0000
               GW ET     =           0.0000                 GW ET     =           0.0000
     SURFACE LEAKAGE     =           0.0000       SURFACE LEAKAGE     =           0.0000

                TOTAL IN =   179507392.0000                  TOTAL IN =          13.1656

          OUT:                                     OUT:
          ----                                     ----
             STORAGE     =    18591368.0000               STORAGE     =           1.7782
       CONSTANT HEAD     =           0.0000         CONSTANT HEAD     =           0.0000
     HEAD DEP BOUNDS     =     4049866.0000       HEAD DEP BOUNDS     =           0.2869
      STREAM LEAKAGE     =   156868960.0000        STREAM LEAKAGE     =          11.1008
        UZF RECHARGE     =           0.0000          UZF RECHARGE     =           0.0000
               GW ET     =           0.0000                 GW ET     =           0.0000
     SURFACE LEAKAGE     =           0.0000       SURFACE LEAKAGE     =           0.0000

               TOTAL OUT =   179510192.0000                 TOTAL OUT =          13.1660

                IN - OUT =       -2800.0000                  IN - OUT =      -3.6716E-04

     PERCENT DISCREPANCY =          -0.00         PERCENT DISCREPANCY =          -0.00






         TIME SUMMARY AT END OF TIME STEP   10 IN STRESS PERIOD    7
                    SECONDS     MINUTES      HOURS       DAYS        YEARS
                    -----------------------------------------------------------
   TIME STEP LENGTH  87667.      1461.1      24.352      1.0147     2.77799E-03
 STRESS PERIOD TIME 8.76667E+05  14611.      243.52      10.147     2.77799E-02
         TOTAL TIME 1.41131E+07 2.35218E+05  3920.3      163.35     0.44722    
1
 
 SOLVING FOR HEAD 
                                                   Max.-Head-Change                         Max.-Flux-Residual
  Residual-Control   Outer-Iter.   Inner-Iter.     Column Row Layer    Maximum-Head-Change  Column Row Layer    Maximum-Flux-Residual          L2-NORM 
          0                 1           2             2    2     1       0.4882952749E-02       2    2    1         0.2542711914E+00      0.4888191155E+00
          0                 2           2             2    2     1      -0.4749788131E-03       2    2    1        -0.2542716319E-01      0.4888193444E-01
          0                 3           1             2    2     1       0.3234428952E-04       2    2    1         0.1779901768E-02      0.3421734309E-02

    ------------------------------------------------
       NWT REQUIRED            3 OUTER ITERATIONS 
       AND A TOTAL OF          5 INNER ITERATIONS.
    ------------------------------------------------

 NO OUTPUT CONTROL FOR STRESS PERIOD    7   TIME STEP   11
 
 SOLVING FOR HEAD 
                                                   Max.-Head-Change                         Max.-Flux-Residual
  Residual-Control   Outer-Iter.   Inner-Iter.     Column Row Layer    Maximum-Head-Change  Column Row Layer    Maximum-Flux-Residual          L2-NORM 
          0                 1           2             2    2     1       0.4865318568E-02       2    2    1         0.2533458186E+00      0.4878821594E+00
          0                 2           2             2    2     1      -0.4732634808E-03       2    2    1        -0.2533462540E-01      0.4878822277E-01
          0                 3           1             2    2     1       0.3222748251E-04       2    2    1         0.1773424141E-02      0.3415165673E-02

    ------------------------------------------------
       NWT REQUIRED            3 OUTER ITERATIONS 
       AND A TOTAL OF          5 INNER ITERATIONS.
    ------------------------------------------------

 NO OUTPUT CONTROL FOR STRESS PERIOD    7   TIME STEP   12
 
 SOLVING FOR HEAD 
                                                   Max.-Head-Change                         Max.-Flux-Residual
  Residual-Control   Outer-Iter.   Inner-Iter.     Column Row Layer    Maximum-Head-Change  Column Row Layer    Maximum-Flux-Residual          L2-NORM 
          0                 1           2             2    2     1       0.4847806855E-02       2    2    1         0.2524269539E+00      0.4869521748E+00
          0                 2           2             2    2     1      -0.4715600614E-03       2    2    1        -0.2524273845E-01      0.4869522862E-01
          0                 3           1             2    2     1       0.3211148586E-04       2    2    1         0.1766992055E-02      0.3408665350E-02

    ------------------------------------------------
       NWT REQUIRED            3 OUTER ITERATIONS 
       AND A TOTAL OF          5 INNER ITERATIONS.
    ------------------------------------------------

 NO OUTPUT CONTROL FOR STRESS PERIOD    7   TIME STEP   13
 
 SOLVING FOR HEAD 
                                                   Max.-Head-Change                         Max.-Flux-Residual
  Residual-Control   Outer-Iter.   Inner-Iter.     Column Row Layer    Maximum-Head-Change  Column Row Layer    Maximum-Flux-Residual          L2-NORM 
          0                 1           2             2    2     1       0.4830502106E-02       2    2    1         0.2515189928E+00      0.4860327603E+00
          0                 2           2             2    2     1      -0.4698767621E-03       2    2    1        -0.2515194188E-01      0.4861149302E-01
          0                 3           1             2    2     1       0.3199685908E-04       2    2    1         0.1760636284E-02      0.3402802291E-02

    ------------------------------------------------
       NWT REQUIRED            3 OUTER ITERATIONS 
       AND A TOTAL OF          5 INNER ITERATIONS.
    ------------------------------------------------

 NO OUTPUT CONTROL FOR STRESS PERIOD    7   TIME STEP   14
 
 SOLVING FOR HEAD 
                                                   Max.-Head-Change                         Max.-Flux-Residual
  Residual-Control   Outer-Iter.   Inner-Iter.     Column Row Layer    Maximum-Head-Change  Column Row Layer    Maximum-Flux-Residual          L2-NORM 
          0                 1           2             2    2     1       0.4813401107E-02       2    2    1         0.2506217633E+00      0.4851218176E+00
          0                 2           2             2    2     1      -0.4682133066E-03       2    2    1        -0.2506221848E-01      0.4851219784E-01
          0                 3           1             2    2     1       0.3188358393E-04       2    2    1         0.1754355649E-02      0.3395850738E-02

    ------------------------------------------------
       NWT REQUIRED            3 OUTER ITERATIONS 
       AND A TOTAL OF          5 INNER ITERATIONS.
    ------------------------------------------------

 OUTPUT CONTROL FOR STRESS PERIOD    7   TIME STEP   15
    PRINT BUDGET
    SAVE BUDGET
 UBDSV1 SAVING "         STORAGE" ON UNIT 102 AT TIME STEP 15, STRESS PERIOD 7
 UBDSV2 SAVING "   CONSTANT HEAD" ON UNIT 102 AT TIME STEP 15, STRESS PERIOD 7
 UBDSV1 SAVING "FLOW RIGHT FACE " ON UNIT 102 AT TIME STEP 15, STRESS PERIOD 7
 UBDSV1 SAVING "FLOW FRONT FACE " ON UNIT 102 AT TIME STEP 15, STRESS PERIOD 7

  HEAD DEP BOUNDS   PERIOD    7   STEP    15
 BOUNDARY      1   LAYER   1   ROW    13   COL     1   RATE   -0.286942    
 BOUNDARY      2   LAYER   1   ROW    14   COL     9   RATE    0.285871    



 STREAM LISTING     PERIOD      7   STEP       15

 LAYER ROW COL. STREAM  RCH.  FLOW INTO     FLOW TO   FLOW OUT OF   OVRLND.     DIRECT     STREAM       STREAM     STREAM     STREAM   STREAMBED  STREAMBED
                SEG.NO.  NO.  STRM. RCH.    AQUIFER    STRM. RCH.    RUNOFF     PRECIP       ET          HEAD       DEPTH      WIDTH   CONDCTNC.   GRADIENT

   1    1    1     1     1    6.2250E+01  3.7978E-01   6.1870E+01  0.000E+00  0.000E+00  0.000E+00  1.09460E+03  1.553E+00  1.854E+01  8.342E-02  1.518E+00
   1    2    2     1     2    6.1870E+01  5.8817E-01   6.1282E+01  0.000E+00  0.000E+00  0.000E+00  1.08961E+03  1.547E+00  1.848E+01  1.294E-01  1.516E+00
   1    3    3     1     3    6.1282E+01  5.0163E-01   6.0781E+01  0.000E+00  0.000E+00  0.000E+00  1.08396E+03  1.540E+00  1.841E+01  1.105E-01  1.513E+00
   1    3    4     1     4    6.0781E+01  4.6194E-01   6.0319E+01  0.000E+00  0.000E+00  0.000E+00  1.07894E+03  1.534E+00  1.836E+01  1.019E-01  1.511E+00
   1    4    5     2     1    5.8319E+01  3.9026E-01   5.7928E+01  0.000E+00  0.000E+00  0.000E+00  1.07394E+03  2.003E+00  1.200E+01  7.800E-02  1.668E+00
   1    5    6     2     2    5.7928E+01  2.9977E-01   5.7629E+01  0.000E+00  0.000E+00  0.000E+00  1.06851E+03  1.996E+00  1.200E+01  6.000E-02  1.665E+00
   1    6    6     2     3    5.7629E+01  2.9940E-01   5.7329E+01  0.000E+00  0.000E+00  0.000E+00  1.06378E+03  1.990E+00  1.200E+01  6.000E-02  1.663E+00
   1    7    6     2     4    5.7329E+01  2.9903E-01   5.7030E+01  0.000E+00  0.000E+00  0.000E+00  1.05906E+03  1.984E+00  1.200E+01  6.000E-02  1.661E+00
   1    8    6     2     5    5.7030E+01  2.9865E-01   5.6732E+01  0.000E+00  0.000E+00  0.000E+00  1.05434E+03  1.978E+00  1.200E+01  6.000E-02  1.659E+00
   1    3    5     3     1    2.0000E+00  2.8252E-01   1.7175E+00  0.000E+00  0.000E+00  0.000E+00  1.07555E+03  1.909E+00  9.636E+00  7.227E-02  1.955E+00
   1    3    6     3     2    1.7175E+00  2.4905E-01   1.4684E+00  0.000E+00  0.000E+00  0.000E+00  1.07264E+03  1.727E+00  8.909E+00  6.682E-02  1.864E+00
   1    3    7     3     3    1.4684E+00  1.9718E-01   1.2712E+00  0.000E+00  0.000E+00  0.000E+00  1.06987E+03  1.555E+00  8.218E+00  5.547E-02  1.777E+00
   1    4    8     3     4    1.2712E+00  2.2567E-01   1.0456E+00  0.000E+00  0.000E+00  0.000E+00  1.06682E+03  1.364E+00  7.455E+00  6.709E-02  1.682E+00
   1    5    8     3     5    1.0456E+00  1.5790E-01   8.8768E-01  0.000E+00  0.000E+00  0.000E+00  1.06362E+03  1.164E+00  6.655E+00  4.991E-02  1.582E+00
   1    6    8     3     6    8.8768E-01  5.5980E-02   8.3170E-01  0.000E+00  0.000E+00  0.000E+00  1.06158E+03  1.036E+00  6.145E+00  1.844E-02  1.518E+00
   1    5   10     4     1    1.0000E+01  9.0919E-02   9.9091E+00  0.000E+00  0.000E+00  0.000E+00  1.07836E+03  6.368E-01  1.000E+01  2.500E-02  1.212E+00
   1    5    9     4     2    9.9091E+00  1.8158E-01   9.7275E+00  0.000E+00  0.000E+00  0.000E+00  1.07154E+03  6.315E-01  1.000E+01  5.000E-02  1.211E+00
   1    6    8     4     3    9.7275E+00  1.2689E-01   9.6006E+00  0.000E+00  0.000E+00  0.000E+00  1.06381E+03  6.256E-01  1.000E+01  3.500E-02  1.209E+00
   1    6    8     5     1    1.0432E+01  2.2686E-01   1.0205E+01  0.000E+00  0.000E+00  0.000E+00  1.05868E+03  6.790E-01  1.542E+01  6.166E-02  1.226E+00
   1    7    7     5     2    1.0205E+01  2.7894E-01   9.9265E+00  0.000E+00  0.000E+00  0.000E+00  1.05417E+03  6.732E-01  1.519E+01  7.594E-02  1.224E+00
   1    8    7     5     3    9.9265E+00  1.9221E-01   9.7343E+00  0.000E+00  0.000E+00  0.000E+00  1.04992E+03  6.676E-01  1.497E+01  5.241E-02  1.223E+00
   1    8    6     5     4    9.7343E+00  1.3577E-01   9.5985E+00  0.000E+00  0.000E+00  0.000E+00  1.04691E+03  6.637E-01  1.482E+01  3.706E-02  1.221E+00
   1    9    6     6     1    9.5985E+00  2.2097E-01   9.3776E+00  0.000E+00  0.000E+00  0.000E+00  1.04341E+03  6.828E-01  1.200E+01  6.000E-02  1.228E+00
   1   10    7     6     2    9.3776E+00  2.2039E-01   9.1572E+00  0.000E+00  0.000E+00  0.000E+00  1.03885E+03  6.732E-01  1.200E+01  6.000E-02  1.224E+00
   1   11    7     6     3    9.1572E+00  2.1981E-01   8.9374E+00  0.000E+00  0.000E+00  0.000E+00  1.03430E+03  6.636E-01  1.200E+01  6.000E-02  1.221E+00
   1   12    7     6     4    8.9374E+00  2.1923E-01   8.7181E+00  0.000E+00  0.000E+00  0.000E+00  1.02974E+03  6.539E-01  1.200E+01  6.000E-02  1.218E+00
   1   13    7     6     5    8.7181E+00 -1.1373E-01   8.8319E+00  0.000E+00  0.000E+00  0.000E+00  1.02656E+03  6.515E-01  1.200E+01  2.400E-01 -1.580E-01
   1   14    9     7     1    1.5000E+02  1.3375E+00   1.4866E+02  0.000E+00  0.000E+00  0.000E+00  1.03987E+03  2.288E+00  5.529E+01  5.593E-01  7.971E-01
   1   13    8     7     2    1.4866E+02  1.8409E+00   1.4682E+02  0.000E+00  0.000E+00  0.000E+00  1.03478E+03  2.279E+00  5.526E+01  6.148E-01  9.982E-01
   1   13    7     7     3    1.4682E+02  1.4828E+00   1.4534E+02  0.000E+00  0.000E+00  0.000E+00  1.02969E+03  2.270E+00  5.522E+01  5.584E-01  8.851E-01
   1   13    6     8     1    1.5417E+02  8.3448E-01   1.5334E+02  0.000E+00  0.000E+00  0.000E+00  1.02472E+03  2.843E+00  4.122E+01  4.201E-01  6.621E-01
   1   13    5     8     2    1.5334E+02  1.0557E-01   1.5323E+02  0.000E+00  0.000E+00  0.000E+00  1.01846E+03  2.840E+00  4.118E+01  4.196E-01  8.387E-02
   1   13    4     8     3    1.5323E+02 -2.6615E+00   1.5589E+02  0.000E+00  0.000E+00  0.000E+00  1.01222E+03  2.849E+00  4.131E+01  4.209E+00 -2.108E-01
   1   13    3     8     4    1.5589E+02 -3.7435E+00   1.5964E+02  0.000E+00  0.000E+00  0.000E+00  1.00600E+03  2.871E+00  4.162E+01  4.242E+00 -2.942E-01
   1   13    2     8     5    1.5964E+02 -2.6001E+00   1.6224E+02  0.000E+00  0.000E+00  0.000E+00  9.99767E+02  2.892E+00  4.194E+01  4.273E+00 -2.028E-01
   1   13    1     8     6    1.6224E+02 -1.9812E+00   1.6422E+02  0.000E+00  0.000E+00  0.000E+00  9.94783E+02  2.908E+00  4.216E+01  2.578E+00 -2.562E-01
   1    8    6     9     1    5.6732E+01  0.0000E+00   5.6732E+01  0.000E+00  0.000E+00  0.000E+00  1.08517E+03  6.420E+00  4.000E+00  0.000E+00  3.140E+00
   1    8    5     9     2    5.6732E+01  0.0000E+00   5.6732E+01  0.000E+00  0.000E+00  0.000E+00  1.08467E+03  6.420E+00  4.000E+00  0.000E+00  3.140E+00



 UBDSV3 SAVING "           GW ET" ON UNIT  61 AT TIME STEP 15, STRESS PERIOD 7
 UBDSV3 SAVING "    UZF RECHARGE" ON UNIT  61 AT TIME STEP 15, STRESS PERIOD 7
 UBDSV3 SAVING " SURFACE LEAKAGE" ON UNIT  61 AT TIME STEP 15, STRESS PERIOD 7
 UBDSV3 SAVING "       HORT+DUNN" ON UNIT  61 AT TIME STEP 15, STRESS PERIOD 7
 UBDSV3 SAVING "  STORAGE CHANGE" ON UNIT  61 AT TIME STEP 15, STRESS PERIOD 7


UNSATURATED ZONE PACKAGE VOLUMETRIC BUDGET FOR  TIME STEP    15 STRESS PERIOD    7
  ------------------------------------------------------------------------------



     CUMULATIVE VOLUMES      L**3       RATES FOR THIS TIME STEP      L**3/T
     ------------------                 ------------------------

           IN:                                      IN:
           ---                                      ---
        INFILTRATION =    12332310.8001          INFILTRATION =           0.8475

          OUT:                                     OUT:
          ----                                     ----
              UZF ET =    12175277.2097                UZF ET =           0.8475
        UZF RECHARGE =       73224.0000          UZF RECHARGE =       0.0000E+00

            IN - OUT =       83809.5904              IN - OUT =       0.0000E+00

          STORAGE:                                 STORAGE:
          --------                                 --------
      STORAGE CHANGE =       83809.6438        STORAGE CHANGE =      -4.1498E-17

 PERCENT DISCREPANCY IS DIFFERENCE BETWEEN IN-OUT MINUS CHANGE IN STORAGE
 DIVIDED BY THE AVERAGE OF IN AND OUT TIMES 100

 PERCENT DISCREPANCY =           0.00     PERCENT DISCREPANCY =           0.00






1
  VOLUMETRIC BUDGET FOR ENTIRE MODEL AT END OF TIME STEP   15, STRESS PERIOD   7
  ------------------------------------------------------------------------------

     CUMULATIVE VOLUMES      L**3       RATES FOR THIS TIME STEP      L**3/T
     ------------------                 ------------------------

           IN:                                      IN:
           ---                                      ---
             STORAGE     =     8711592.0000               STORAGE     =           0.4725
       CONSTANT HEAD     =           0.0000         CONSTANT HEAD     =           0.0000
     HEAD DEP BOUNDS     =     4158235.0000       HEAD DEP BOUNDS     =           0.2859
      STREAM LEAKAGE     =   172333824.0000        STREAM LEAKAGE     =          12.4018
        UZF RECHARGE     =       73223.9531          UZF RECHARGE     =           0.0000
               GW ET     =           0.0000                 GW ET     =           0.0000
     SURFACE LEAKAGE     =           0.0000       SURFACE LEAKAGE     =           0.0000

                TOTAL IN =   185276864.0000                  TOTAL IN =          13.1601

          OUT:                                     OUT:
          ----                                     ----
             STORAGE     =    19369570.0000               STORAGE     =           1.7735
       CONSTANT HEAD     =           0.0000         CONSTANT HEAD     =           0.0000
     HEAD DEP BOUNDS     =     4175642.2500       HEAD DEP BOUNDS     =           0.2869
      STREAM LEAKAGE     =   161734608.0000        STREAM LEAKAGE     =          11.1000
        UZF RECHARGE     =           0.0000          UZF RECHARGE     =           0.0000
               GW ET     =           0.0000                 GW ET     =           0.0000
     SURFACE LEAKAGE     =           0.0000       SURFACE LEAKAGE     =           0.0000

               TOTAL OUT =   185279824.0000                 TOTAL OUT =          13.1605

                IN - OUT =       -2960.0000                  IN - OUT =      -3.6812E-04

     PERCENT DISCREPANCY =          -0.00         PERCENT DISCREPANCY =          -0.00






         TIME SUMMARY AT END OF TIME STEP   15 IN STRESS PERIOD    7
                    SECONDS     MINUTES      HOURS       DAYS        YEARS
                    -----------------------------------------------------------
   TIME STEP LENGTH  87667.      1461.1      24.352      1.0147     2.77799E-03
 STRESS PERIOD TIME 1.31500E+06  21917.      365.28      15.220     4.16698E-02
         TOTAL TIME 1.45514E+07 2.42524E+05  4042.1      168.42     0.46111    
1
 
 SOLVING FOR HEAD 
                                                   Max.-Head-Change                         Max.-Flux-Residual
  Residual-Control   Outer-Iter.   Inner-Iter.     Column Row Layer    Maximum-Head-Change  Column Row Layer    Maximum-Flux-Residual          L2-NORM 
          0                 1           2             2    2     1       0.4796501025E-02       2    2    1         0.2497350968E+00      0.4842214939E+00
          0                 2           2             2    2     1      -0.4665693825E-03       2    2    1        -0.2497355137E-01      0.4842217062E-01
          0                 3           1             2    2     1       0.3177163913E-04       2    2    1         0.1748148958E-02      0.3389557732E-02

    ------------------------------------------------
       NWT REQUIRED            3 OUTER ITERATIONS 
       AND A TOTAL OF          5 INNER ITERATIONS.
    ------------------------------------------------

 NO OUTPUT CONTROL FOR STRESS PERIOD    7   TIME STEP   16
 
 SOLVING FOR HEAD 
                                                   Max.-Head-Change                         Max.-Flux-Residual
  Residual-Control   Outer-Iter.   Inner-Iter.     Column Row Layer    Maximum-Head-Change  Column Row Layer    Maximum-Flux-Residual          L2-NORM 
          0                 1           2             2    2     1       0.4779798714E-02       2    2    1         0.2488588482E+00      0.4833306467E+00
          0                 2           2             2    2     1      -0.4649446964E-03       2    2    1        -0.2488592606E-01      0.4833307871E-01
          0                 3           1             2    2     1       0.3166100432E-04       2    2    1         0.1742015203E-02      0.3383313551E-02

    ------------------------------------------------
       NWT REQUIRED            3 OUTER ITERATIONS 
       AND A TOTAL OF          5 INNER ITERATIONS.
    ------------------------------------------------

 NO OUTPUT CONTROL FOR STRESS PERIOD    7   TIME STEP   17
 
 SOLVING FOR HEAD 
                                                   Max.-Head-Change                         Max.-Flux-Residual
  Residual-Control   Outer-Iter.   Inner-Iter.     Column Row Layer    Maximum-Head-Change  Column Row Layer    Maximum-Flux-Residual          L2-NORM 
          0                 1           2             2    2     1       0.4763203968E-02       2    2    1         0.2479882990E+00      0.4824510579E+00
          0                 2           2             2    2     1      -0.4633304731E-03       2    2    1        -0.2479887069E-01      0.4824511841E-01
          0                 3           1             2    2     1       0.3155108142E-04       2    2    1         0.1735921308E-02      0.3377153779E-02

    ------------------------------------------------
       NWT REQUIRED            3 OUTER ITERATIONS 
       AND A TOTAL OF          5 INNER ITERATIONS.
    ------------------------------------------------

 NO OUTPUT CONTROL FOR STRESS PERIOD    7   TIME STEP   18
 
 SOLVING FOR HEAD 
                                                   Max.-Head-Change                         Max.-Flux-Residual
  Residual-Control   Outer-Iter.   Inner-Iter.     Column Row Layer    Maximum-Head-Change  Column Row Layer    Maximum-Flux-Residual          L2-NORM 
          0                 1           2             2    2     1       0.4746888339E-02       2    2    1         0.2471324367E+00      0.4815810772E+00
          0                 2           2             2    2     1      -0.4617434013E-03       2    2    1        -0.2471328404E-01      0.4815812109E-01
          0                 3           1             2    2     1       0.3144300812E-04       2    2    1         0.1729930256E-02      0.3371067848E-02

    ------------------------------------------------
       NWT REQUIRED            3 OUTER ITERATIONS 
       AND A TOTAL OF          5 INNER ITERATIONS.
    ------------------------------------------------

 NO OUTPUT CONTROL FOR STRESS PERIOD    7   TIME STEP   19
 
 SOLVING FOR HEAD 
                                                   Max.-Head-Change                         Max.-Flux-Residual
  Residual-Control   Outer-Iter.   Inner-Iter.     Column Row Layer    Maximum-Head-Change  Column Row Layer    Maximum-Flux-Residual          L2-NORM 
          0                 1           2             2    2     1       0.4730674643E-02       2    2    1         0.2462819362E+00      0.4807259227E+00
          0                 2           2             2    2     1      -0.4601662443E-03       2    2    1        -0.2462823357E-01      0.4807260942E-01
          0                 3           1             2    2     1       0.3133560934E-04       2    2    1         0.1723976708E-02      0.3365083439E-02

    ------------------------------------------------
       NWT REQUIRED            3 OUTER ITERATIONS 
       AND A TOTAL OF          5 INNER ITERATIONS.
    ------------------------------------------------

 NO OUTPUT CONTROL FOR STRESS PERIOD    7   TIME STEP   20
 
 SOLVING FOR HEAD 
                                                   Max.-Head-Change                         Max.-Flux-Residual
  Residual-Control   Outer-Iter.   Inner-Iter.     Column Row Layer    Maximum-Head-Change  Column Row Layer    Maximum-Flux-Residual          L2-NORM 
          0                 1           2             1    1     1       0.4717523213E-02       2    2    1         0.2454412758E+00      0.4798760163E+00
          0                 2           2             1    1     1      -0.4588871453E-03       2    2    1        -0.2454416711E-01      0.4798761702E-01
          0                 3           1             1    1     1       0.3124850576E-04       2    2    1         0.1718092065E-02      0.3359132750E-02

    ------------------------------------------------
       NWT REQUIRED            3 OUTER ITERATIONS 
       AND A TOTAL OF          5 INNER ITERATIONS.
    ------------------------------------------------

 NO OUTPUT CONTROL FOR STRESS PERIOD    7   TIME STEP   21
 
 SOLVING FOR HEAD 
                                                   Max.-Head-Change                         Max.-Flux-Residual
  Residual-Control   Outer-Iter.   Inner-Iter.     Column Row Layer    Maximum-Head-Change  Column Row Layer    Maximum-Flux-Residual          L2-NORM 
          0                 1           2             1    1     1       0.4711754419E-02       1    1    1         0.2446402767E+00      0.4790358090E+00
          0                 2           2             1    1     1      -0.4583259958E-03       1    1    1        -0.2446407861E-01      0.4790359457E-01
          0                 3           1             1    1     1       0.3121029368E-04       1    1    1         0.1712485768E-02      0.3353248847E-02

    ------------------------------------------------
       NWT REQUIRED            3 OUTER ITERATIONS 
       AND A TOTAL OF          5 INNER ITERATIONS.
    ------------------------------------------------

 NO OUTPUT CONTROL FOR STRESS PERIOD    7   TIME STEP   22
 
 SOLVING FOR HEAD 
                                                   Max.-Head-Change                         Max.-Flux-Residual
  Residual-Control   Outer-Iter.   Inner-Iter.     Column Row Layer    Maximum-Head-Change  Column Row Layer    Maximum-Flux-Residual          L2-NORM 
          0                 1           2             1    1     1       0.4706005817E-02       1    1    1         0.2443411744E+00      0.4782045809E+00
          0                 2           2             1    1     1      -0.4577668099E-03       1    1    1        -0.2443416815E-01      0.4782047143E-01
          0                 3           1             1    1     1       0.3117221508E-04       1    1    1         0.1710392026E-02      0.3347431192E-02

    ------------------------------------------------
       NWT REQUIRED            3 OUTER ITERATIONS 
       AND A TOTAL OF          5 INNER ITERATIONS.
    ------------------------------------------------

 NO OUTPUT CONTROL FOR STRESS PERIOD    7   TIME STEP   23
 
 SOLVING FOR HEAD 
                                                   Max.-Head-Change                         Max.-Flux-Residual
  Residual-Control   Outer-Iter.   Inner-Iter.     Column Row Layer    Maximum-Head-Change  Column Row Layer    Maximum-Flux-Residual          L2-NORM 
          0                 1           2             1    1     1       0.4700299417E-02       1    1    1         0.2440442666E+00      0.4773891820E+00
          0                 2           2             1    1     1      -0.4572117293E-03       1    1    1        -0.2440447713E-01      0.4773892800E-01
          0                 3           1             1    1     1       0.3113441623E-04       1    1    1         0.1708313663E-02      0.3341720528E-02

    ------------------------------------------------
       NWT REQUIRED            3 OUTER ITERATIONS 
       AND A TOTAL OF          5 INNER ITERATIONS.
    ------------------------------------------------

 NO OUTPUT CONTROL FOR STRESS PERIOD    7   TIME STEP   24
 
 SOLVING FOR HEAD 
                                                   Max.-Head-Change                         Max.-Flux-Residual
  Residual-Control   Outer-Iter.   Inner-Iter.     Column Row Layer    Maximum-Head-Change  Column Row Layer    Maximum-Flux-Residual          L2-NORM 
          0                 1           2             1    1     1       0.4694590890E-02       1    1    1         0.2437472520E+00      0.4765803982E+00
          0                 2           2             1    1     1      -0.4566564417E-03       1    1    1        -0.2437477545E-01      0.4765805008E-01
          0                 3           1             1    1     1       0.3109660318E-04       1    1    1         0.1706234537E-02      0.3336075467E-02

    ------------------------------------------------
       NWT REQUIRED            3 OUTER ITERATIONS 
       AND A TOTAL OF          5 INNER ITERATIONS.
    ------------------------------------------------

 NO OUTPUT CONTROL FOR STRESS PERIOD    7   TIME STEP   25
 
 SOLVING FOR HEAD 
                                                   Max.-Head-Change                         Max.-Flux-Residual
  Residual-Control   Outer-Iter.   Inner-Iter.     Column Row Layer    Maximum-Head-Change  Column Row Layer    Maximum-Flux-Residual          L2-NORM 
          0                 1           2             1    1     1       0.4688902308E-02       1    1    1         0.2434512746E+00      0.4757776293E+00
          0                 2           2             1    1     1      -0.4561030940E-03       1    1    1        -0.2434517747E-01      0.4757777651E-01
          0                 3           1             1    1     1       0.3105892219E-04       1    1    1         0.1704162672E-02      0.3330445520E-02

    ------------------------------------------------
       NWT REQUIRED            3 OUTER ITERATIONS 
       AND A TOTAL OF          5 INNER ITERATIONS.
    ------------------------------------------------

 NO OUTPUT CONTROL FOR STRESS PERIOD    7   TIME STEP   26
 
 SOLVING FOR HEAD 
                                                   Max.-Head-Change                         Max.-Flux-Residual
  Residual-Control   Outer-Iter.   Inner-Iter.     Column Row Layer    Maximum-Head-Change  Column Row Layer    Maximum-Flux-Residual          L2-NORM 
          0                 1           2             1    1     1       0.4683211502E-02       1    1    1         0.2431551834E+00      0.4749847644E+00
          0                 2           2             1    1     1      -0.4555495303E-03       1    1    1        -0.2431556811E-01      0.4749849183E-01
          0                 3           1             1    1     1       0.3102122676E-04       1    1    1         0.1702090024E-02      0.3324893913E-02

    ------------------------------------------------
       NWT REQUIRED            3 OUTER ITERATIONS 
       AND A TOTAL OF          5 INNER ITERATIONS.
    ------------------------------------------------

 NO OUTPUT CONTROL FOR STRESS PERIOD    7   TIME STEP   27
 
 SOLVING FOR HEAD 
                                                   Max.-Head-Change                         Max.-Flux-Residual
  Residual-Control   Outer-Iter.   Inner-Iter.     Column Row Layer    Maximum-Head-Change  Column Row Layer    Maximum-Flux-Residual          L2-NORM 
          0                 1           2             1    1     1       0.4677562616E-02       1    1    1         0.2428612727E+00      0.4742029076E+00
          0                 2           2             1    1     1      -0.4550000444E-03       1    1    1        -0.2428617682E-01      0.4742030738E-01
          0                 3           1             1    1     1       0.3098380872E-04       1    1    1         0.1700032642E-02      0.3319425467E-02

    ------------------------------------------------
       NWT REQUIRED            3 OUTER ITERATIONS 
       AND A TOTAL OF          5 INNER ITERATIONS.
    ------------------------------------------------

 NO OUTPUT CONTROL FOR STRESS PERIOD    7   TIME STEP   28
 
 SOLVING FOR HEAD 
                                                   Max.-Head-Change                         Max.-Flux-Residual
  Residual-Control   Outer-Iter.   Inner-Iter.     Column Row Layer    Maximum-Head-Change  Column Row Layer    Maximum-Flux-Residual          L2-NORM 
          0                 1           2             1    1     1       0.4671933455E-02       1    1    1         0.2425683876E+00      0.4734231380E+00
          0                 2           2             1    1     1      -0.4544524771E-03       1    1    1        -0.2425688808E-01      0.4734232824E-01
          0                 3           1             1    1     1       0.3094652156E-04       1    1    1         0.1697982431E-02      0.3313962985E-02

    ------------------------------------------------
       NWT REQUIRED            3 OUTER ITERATIONS 
       AND A TOTAL OF          5 INNER ITERATIONS.
    ------------------------------------------------

 NO OUTPUT CONTROL FOR STRESS PERIOD    7   TIME STEP   29
 
 SOLVING FOR HEAD 
                                                   Max.-Head-Change                         Max.-Flux-Residual
  Residual-Control   Outer-Iter.   Inner-Iter.     Column Row Layer    Maximum-Head-Change  Column Row Layer    Maximum-Flux-Residual          L2-NORM 
          0                 1           2             1    1     1       0.4360760799E-02       1    1    1         0.2264051502E+00      0.4385344662E+00
          0                 2           2             1    1     1      -0.4241837505E-03       1    1    1        -0.2264055697E-01      0.4385344688E-01
          0                 3           1             1    1     1       0.2888533474E-04       1    1    1         0.1584839273E-02      0.3069739831E-02

    ------------------------------------------------
       NWT REQUIRED            3 OUTER ITERATIONS 
       AND A TOTAL OF          5 INNER ITERATIONS.
    ------------------------------------------------

 NO OUTPUT CONTROL FOR STRESS PERIOD    7   TIME STEP   30



 STREAM LISTING     PERIOD      7   STEP       30

 LAYER ROW COL. STREAM  RCH.  FLOW INTO     FLOW TO   FLOW OUT OF   OVRLND.     DIRECT     STREAM       STREAM     STREAM     STREAM   STREAMBED  STREAMBED
                SEG.NO.  NO.  STRM. RCH.    AQUIFER    STRM. RCH.    RUNOFF     PRECIP       ET          HEAD       DEPTH      WIDTH   CONDCTNC.   GRADIENT

   1    1    1     1     1    5.7704E+01  3.6391E-01   5.7340E+01  0.000E+00  0.000E+00  0.000E+00  1.09454E+03  1.497E+00  1.798E+01  8.092E-02  1.499E+00
   1    2    2     1     2    5.7340E+01  5.6353E-01   5.6777E+01  0.000E+00  0.000E+00  0.000E+00  1.08955E+03  1.491E+00  1.792E+01  1.255E-01  1.497E+00
   1    3    3     1     3    5.6777E+01  4.8055E-01   5.6296E+01  0.000E+00  0.000E+00  0.000E+00  1.08390E+03  1.485E+00  1.786E+01  1.071E-01  1.495E+00
   1    3    4     1     4    5.6296E+01  4.4247E-01   5.5854E+01  0.000E+00  0.000E+00  0.000E+00  1.07889E+03  1.479E+00  1.780E+01  9.879E-02  1.493E+00
   1    4    5     2     1    5.3854E+01  3.8295E-01   5.3471E+01  0.000E+00  0.000E+00  0.000E+00  1.07384E+03  1.910E+00  1.200E+01  7.800E-02  1.637E+00
   1    5    6     2     2    5.3471E+01  2.9414E-01   5.3177E+01  0.000E+00  0.000E+00  0.000E+00  1.06841E+03  1.902E+00  1.200E+01  6.000E-02  1.634E+00
   1    6    6     2     3    5.3177E+01  2.9376E-01   5.2883E+01  0.000E+00  0.000E+00  0.000E+00  1.06369E+03  1.896E+00  1.200E+01  6.000E-02  1.632E+00
   1    7    6     2     4    5.2883E+01  2.9339E-01   5.2590E+01  0.000E+00  0.000E+00  0.000E+00  1.05897E+03  1.890E+00  1.200E+01  6.000E-02  1.630E+00
   1    8    6     2     5    5.2590E+01  2.9301E-01   5.2297E+01  0.000E+00  0.000E+00  0.000E+00  1.05424E+03  1.883E+00  1.200E+01  6.000E-02  1.628E+00
   1    3    5     3     1    2.0000E+00  2.8252E-01   1.7175E+00  0.000E+00  0.000E+00  0.000E+00  1.07555E+03  1.909E+00  9.636E+00  7.227E-02  1.955E+00
   1    3    6     3     2    1.7175E+00  2.4905E-01   1.4684E+00  0.000E+00  0.000E+00  0.000E+00  1.07264E+03  1.727E+00  8.909E+00  6.682E-02  1.864E+00
   1    3    7     3     3    1.4684E+00  1.9718E-01   1.2712E+00  0.000E+00  0.000E+00  0.000E+00  1.06987E+03  1.555E+00  8.218E+00  5.547E-02  1.777E+00
   1    4    8     3     4    1.2712E+00  2.2567E-01   1.0456E+00  0.000E+00  0.000E+00  0.000E+00  1.06682E+03  1.364E+00  7.455E+00  6.709E-02  1.682E+00
   1    5    8     3     5    1.0456E+00  1.5790E-01   8.8768E-01  0.000E+00  0.000E+00  0.000E+00  1.06362E+03  1.164E+00  6.655E+00  4.991E-02  1.582E+00
   1    6    8     3     6    8.8768E-01  5.5980E-02   8.3170E-01  0.000E+00  0.000E+00  0.000E+00  1.06158E+03  1.036E+00  6.145E+00  1.844E-02  1.518E+00
   1    5   10     4     1    1.0000E+01  9.0919E-02   9.9091E+00  0.000E+00  0.000E+00  0.000E+00  1.07836E+03  6.368E-01  1.000E+01  2.500E-02  1.212E+00
   1    5    9     4     2    9.9091E+00  1.8158E-01   9.7275E+00  0.000E+00  0.000E+00  0.000E+00  1.07154E+03  6.315E-01  1.000E+01  5.000E-02  1.211E+00
   1    6    8     4     3    9.7275E+00  1.2689E-01   9.6006E+00  0.000E+00  0.000E+00  0.000E+00  1.06381E+03  6.256E-01  1.000E+01  3.500E-02  1.209E+00
   1    6    8     5     1    1.0432E+01  2.2686E-01   1.0205E+01  0.000E+00  0.000E+00  0.000E+00  1.05868E+03  6.790E-01  1.542E+01  6.166E-02  1.226E+00
   1    7    7     5     2    1.0205E+01  2.7894E-01   9.9265E+00  0.000E+00  0.000E+00  0.000E+00  1.05417E+03  6.732E-01  1.519E+01  7.594E-02  1.224E+00
   1    8    7     5     3    9.9265E+00  1.9221E-01   9.7343E+00  0.000E+00  0.000E+00  0.000E+00  1.04992E+03  6.676E-01  1.497E+01  5.241E-02  1.223E+00
   1    8    6     5     4    9.7343E+00  1.3577E-01   9.5985E+00  0.000E+00  0.000E+00  0.000E+00  1.04691E+03  6.637E-01  1.482E+01  3.706E-02  1.221E+00
   1    9    6     6     1    9.5985E+00  2.2097E-01   9.3776E+00  0.000E+00  0.000E+00  0.000E+00  1.04341E+03  6.828E-01  1.200E+01  6.000E-02  1.228E+00
   1   10    7     6     2    9.3776E+00  2.2039E-01   9.1572E+00  0.000E+00  0.000E+00  0.000E+00  1.03885E+03  6.732E-01  1.200E+01  6.000E-02  1.224E+00
   1   11    7     6     3    9.1572E+00  2.1981E-01   8.9374E+00  0.000E+00  0.000E+00  0.000E+00  1.03430E+03  6.636E-01  1.200E+01  6.000E-02  1.221E+00
   1   12    7     6     4    8.9374E+00  2.1923E-01   8.7181E+00  0.000E+00  0.000E+00  0.000E+00  1.02974E+03  6.539E-01  1.200E+01  6.000E-02  1.218E+00
   1   13    7     6     5    8.7181E+00 -1.1357E-01   8.8317E+00  0.000E+00  0.000E+00  0.000E+00  1.02656E+03  6.515E-01  1.200E+01  2.400E-01 -1.577E-01
   1   14    9     7     1    1.5000E+02  1.3377E+00   1.4866E+02  0.000E+00  0.000E+00  0.000E+00  1.03987E+03  2.288E+00  5.529E+01  5.593E-01  7.973E-01
   1   13    8     7     2    1.4866E+02  1.8413E+00   1.4682E+02  0.000E+00  0.000E+00  0.000E+00  1.03478E+03  2.279E+00  5.526E+01  6.148E-01  9.984E-01
   1   13    7     7     3    1.4682E+02  1.4832E+00   1.4534E+02  0.000E+00  0.000E+00  0.000E+00  1.02969E+03  2.270E+00  5.522E+01  5.584E-01  8.853E-01
   1   13    6     8     1    1.5417E+02  8.3485E-01   1.5333E+02  0.000E+00  0.000E+00  0.000E+00  1.02472E+03  2.843E+00  4.122E+01  4.201E-01  6.624E-01
   1   13    5     8     2    1.5333E+02  1.0586E-01   1.5323E+02  0.000E+00  0.000E+00  0.000E+00  1.01846E+03  2.840E+00  4.118E+01  4.196E-01  8.409E-02
   1   13    4     8     3    1.5323E+02 -2.6605E+00   1.5589E+02  0.000E+00  0.000E+00  0.000E+00  1.01222E+03  2.849E+00  4.131E+01  4.209E+00 -2.107E-01
   1   13    3     8     4    1.5589E+02 -3.7428E+00   1.5963E+02  0.000E+00  0.000E+00  0.000E+00  1.00600E+03  2.871E+00  4.162E+01  4.242E+00 -2.941E-01
   1   13    2     8     5    1.5963E+02 -2.5999E+00   1.6223E+02  0.000E+00  0.000E+00  0.000E+00  9.99767E+02  2.892E+00  4.194E+01  4.273E+00 -2.028E-01
   1   13    1     8     6    1.6223E+02 -1.9811E+00   1.6421E+02  0.000E+00  0.000E+00  0.000E+00  9.94783E+02  2.908E+00  4.216E+01  2.578E+00 -2.562E-01
   1    8    6     9     1    5.2297E+01  0.0000E+00   5.2297E+01  0.000E+00  0.000E+00  0.000E+00  1.08486E+03  6.114E+00  4.000E+00  0.000E+00  3.038E+00
   1    8    5     9     2    5.2297E+01  0.0000E+00   5.2297E+01  0.000E+00  0.000E+00  0.000E+00  1.08436E+03  6.114E+00  4.000E+00  0.000E+00  3.038E+00





UNSATURATED ZONE PACKAGE VOLUMETRIC BUDGET FOR  TIME STEP    30 STRESS PERIOD    7
  ------------------------------------------------------------------------------



     CUMULATIVE VOLUMES      L**3       RATES FOR THIS TIME STEP      L**3/T
     ------------------                 ------------------------

           IN:                                      IN:
           ---                                      ---
        INFILTRATION =    13446773.2365          INFILTRATION =           0.8475

          OUT:                                     OUT:
          ----                                     ----
              UZF ET =    13289739.6461                UZF ET =           0.8475
        UZF RECHARGE =       73224.0000          UZF RECHARGE =       0.0000E+00

            IN - OUT =       83809.5904              IN - OUT =       0.0000E+00

          STORAGE:                                 STORAGE:
          --------                                 --------
      STORAGE CHANGE =       83809.6438        STORAGE CHANGE =       1.5562E-16

 PERCENT DISCREPANCY IS DIFFERENCE BETWEEN IN-OUT MINUS CHANGE IN STORAGE
 DIVIDED BY THE AVERAGE OF IN AND OUT TIMES 100

 PERCENT DISCREPANCY =           0.00     PERCENT DISCREPANCY =           0.00






1
  VOLUMETRIC BUDGET FOR ENTIRE MODEL AT END OF TIME STEP   30, STRESS PERIOD   7
  ------------------------------------------------------------------------------

     CUMULATIVE VOLUMES      L**3       RATES FOR THIS TIME STEP      L**3/T
     ------------------                 ------------------------

           IN:                                      IN:
           ---                                      ---
             STORAGE     =     9320786.0000               STORAGE     =           0.4553
       CONSTANT HEAD     =           0.0000         CONSTANT HEAD     =           0.0000
     HEAD DEP BOUNDS     =     4534168.0000       HEAD DEP BOUNDS     =           0.2859
      STREAM LEAKAGE     =   188633632.0000        STREAM LEAKAGE     =          12.2925
        UZF RECHARGE     =       73223.9531          UZF RECHARGE     =           0.0000
               GW ET     =           0.0000                 GW ET     =           0.0000
     SURFACE LEAKAGE     =           0.0000       SURFACE LEAKAGE     =           0.0000

                TOTAL IN =   202561808.0000                  TOTAL IN =          13.0337

          OUT:                                     OUT:
          ----                                     ----
             STORAGE     =    21682622.0000               STORAGE     =           1.6492
       CONSTANT HEAD     =           0.0000         CONSTANT HEAD     =           0.0000
     HEAD DEP BOUNDS     =     4552968.5000       HEAD DEP BOUNDS     =           0.2869
      STREAM LEAKAGE     =   176329632.0000        STREAM LEAKAGE     =          11.0979
        UZF RECHARGE     =           0.0000          UZF RECHARGE     =           0.0000
               GW ET     =           0.0000                 GW ET     =           0.0000
     SURFACE LEAKAGE     =           0.0000       SURFACE LEAKAGE     =           0.0000

               TOTAL OUT =   202565216.0000                 TOTAL OUT =          13.0340

                IN - OUT =       -3408.0000                  IN - OUT =      -3.3760E-04

     PERCENT DISCREPANCY =          -0.00         PERCENT DISCREPANCY =          -0.00






         TIME SUMMARY AT END OF TIME STEP   30 IN STRESS PERIOD    7
                    SECONDS     MINUTES      HOURS       DAYS        YEARS
                    -----------------------------------------------------------
   TIME STEP LENGTH  87667.      1461.1      24.352      1.0147     2.77799E-03
 STRESS PERIOD TIME 2.63000E+06  43833.      730.56      30.440     8.33397E-02
         TOTAL TIME 1.58664E+07 2.64440E+05  4407.3      183.64     0.50278    
1
1
                            STRESS PERIOD NO.    8, LENGTH =   2630000.    
                            -----------------------------------------------

                              NUMBER OF TIME STEPS =    30

                               MULTIPLIER FOR DELT =     1.000

                            INITIAL TIME STEP SIZE =   87666.66    

 REUSING NON-PARAMETER GHB CELLS FROM LAST STRESS PERIOD

      2 GHB CELLS

 REUSING STREAM SEGMENT DATA FROM LAST STRESS PERIOD



            AREAL INFILTRATION RATE
 READING ON UNIT   19 WITH FORMAT: (FREE)              

            1           2           3           4           5           6           7           8           9          10
 ........................................................................................................................
   1   1.0000E-10  2.0000E-10   0.000       0.000       0.000       0.000       0.000       0.000       0.000       0.000    
   2   2.0000E-10  1.0000E-10  2.0000E-10   0.000       0.000      8.0000E-10  8.0000E-10  5.0000E-10   0.000       0.000    
   3    0.000      5.0000E-10  1.0000E-10  1.0000E-10  8.0000E-10  8.0000E-10  5.0000E-10  5.0000E-10   0.000       0.000    
   4   8.0000E-10  5.0000E-10  1.0000E-10  1.0000E-10  1.0000E-10  1.0000E-10  1.0000E-10  1.0000E-10  2.0000E-10   0.000    
   5   8.0000E-10  5.0000E-10  1.0000E-10  1.0000E-10  1.0000E-10  1.0000E-10  1.0000E-10  1.0000E-10  1.0000E-10  1.0000E-10
   6   8.0000E-10  5.0000E-10  5.0000E-10  2.0000E-10  2.0000E-10  1.0000E-10  1.0000E-10  1.0000E-10  1.0000E-10  5.0000E-10
   7   8.0000E-10  5.0000E-10  5.0000E-10  2.0000E-10  2.0000E-10  1.0000E-10  1.0000E-10  2.0000E-10  2.0000E-10   0.000    
   8    0.000      5.0000E-10  5.0000E-10  2.0000E-10  2.0000E-10  1.0000E-10  1.0000E-10  2.0000E-10  5.0000E-10   0.000    
   9    0.000      5.0000E-10  5.0000E-10  2.0000E-10  2.0000E-10  1.0000E-10  1.0000E-10  2.0000E-10  5.0000E-10   0.000    
  10    0.000      5.0000E-10  5.0000E-10  2.0000E-10  2.0000E-10  1.0000E-10  1.0000E-10  2.0000E-10  5.0000E-10  8.0000E-10
  11    0.000      1.0000E-10  1.0000E-10  1.0000E-10  1.0000E-10  1.0000E-10  1.0000E-10  2.0000E-10  5.0000E-10   0.000    
  12   1.0000E-10  1.0000E-10  1.0000E-10  1.0000E-10  1.0000E-10  1.0000E-10  1.0000E-10  1.0000E-10  2.0000E-10   0.000    
  13   1.0000E-10  1.0000E-10  2.0000E-10  2.0000E-10  2.0000E-10  2.0000E-10  2.0000E-10  1.0000E-10  1.0000E-10   0.000    
  14    0.000      2.0000E-10  5.0000E-10  5.0000E-10  5.0000E-10  5.0000E-10  5.0000E-10  2.0000E-10  1.0000E-10   0.000    
  15    0.000       0.000      8.0000E-10  8.0000E-10  8.0000E-10  8.0000E-10   0.000       0.000       0.000       0.000    

                  ET RATE =  4.000000E-07

 USING ET EXTINCTION DEPTH FROM PREVIOUS STRESS PERIOD. CURRENT PERIOD IS:       8

 USING EXTINCTION WATER CONTENT FROM PREVIOUS STRESS PERIOD. CURRENT PERIOD IS:       8

 USING AIR ENTRY PRESSURE FROM PREVIOUS STRESS PERIOD. CURRENT PERIOD IS:       8

 USING ROOT PRESSURE HEAD FROM PREVIOUS STRESS PERIOD. CURRENT PERIOD IS:       8

 USING ROOT ACTIVITY FROM PREVIOUS STRESS PERIOD. CURRENT PERIOD IS:       8
 
 SOLVING FOR HEAD 
                                                   Max.-Head-Change                         Max.-Flux-Residual
  Residual-Control   Outer-Iter.   Inner-Iter.     Column Row Layer    Maximum-Head-Change  Column Row Layer    Maximum-Flux-Residual          L2-NORM 
          0                 1           2             1    1     1       0.4256161281E-02       1    1    1         0.2209716647E+00      0.4271685079E+00
          0                 2           2             1    1     1      -0.4140090334E-03       1    1    1        -0.2209720605E-01      0.4271684748E-01
          0                 3           1             1    1     1       0.2819247469E-04       1    1    1         0.1546804718E-02      0.2990173354E-02

    ------------------------------------------------
       NWT REQUIRED            3 OUTER ITERATIONS 
       AND A TOTAL OF          5 INNER ITERATIONS.
    ------------------------------------------------

 OUTPUT CONTROL FOR STRESS PERIOD    8   TIME STEP    1
    PRINT BUDGET
    SAVE BUDGET
 UBDSV1 SAVING "         STORAGE" ON UNIT 102 AT TIME STEP 1, STRESS PERIOD 8
 UBDSV2 SAVING "   CONSTANT HEAD" ON UNIT 102 AT TIME STEP 1, STRESS PERIOD 8
 UBDSV1 SAVING "FLOW RIGHT FACE " ON UNIT 102 AT TIME STEP 1, STRESS PERIOD 8
 UBDSV1 SAVING "FLOW FRONT FACE " ON UNIT 102 AT TIME STEP 1, STRESS PERIOD 8

  HEAD DEP BOUNDS   PERIOD    8   STEP     1
 BOUNDARY      1   LAYER   1   ROW    13   COL     1   RATE   -0.286941    
 BOUNDARY      2   LAYER   1   ROW    14   COL     9   RATE    0.285890    



 STREAM LISTING     PERIOD      8   STEP        1

 LAYER ROW COL. STREAM  RCH.  FLOW INTO     FLOW TO   FLOW OUT OF   OVRLND.     DIRECT     STREAM       STREAM     STREAM     STREAM   STREAMBED  STREAMBED
                SEG.NO.  NO.  STRM. RCH.    AQUIFER    STRM. RCH.    RUNOFF     PRECIP       ET          HEAD       DEPTH      WIDTH   CONDCTNC.   GRADIENT

   1    1    1     1     1    5.6250E+01  3.5875E-01   5.5891E+01  0.000E+00  0.000E+00  0.000E+00  1.09453E+03  1.479E+00  1.780E+01  8.010E-02  1.493E+00
   1    2    2     1     2    5.5891E+01  5.5550E-01   5.5336E+01  0.000E+00  0.000E+00  0.000E+00  1.08953E+03  1.473E+00  1.774E+01  1.242E-01  1.491E+00
   1    3    3     1     3    5.5336E+01  4.7368E-01   5.4862E+01  0.000E+00  0.000E+00  0.000E+00  1.08389E+03  1.467E+00  1.767E+01  1.060E-01  1.489E+00
   1    3    4     1     4    5.4862E+01  4.3613E-01   5.4426E+01  0.000E+00  0.000E+00  0.000E+00  1.07887E+03  1.461E+00  1.762E+01  9.777E-02  1.487E+00
   1    4    5     2     1    5.2426E+01  3.8056E-01   5.2046E+01  0.000E+00  0.000E+00  0.000E+00  1.07381E+03  1.879E+00  1.200E+01  7.800E-02  1.626E+00
   1    5    6     2     2    5.2046E+01  2.9230E-01   5.1753E+01  0.000E+00  0.000E+00  0.000E+00  1.06838E+03  1.872E+00  1.200E+01  6.000E-02  1.624E+00
   1    6    6     2     3    5.1753E+01  2.9192E-01   5.1461E+01  0.000E+00  0.000E+00  0.000E+00  1.06366E+03  1.865E+00  1.200E+01  6.000E-02  1.622E+00
   1    7    6     2     4    5.1461E+01  2.9154E-01   5.1170E+01  0.000E+00  0.000E+00  0.000E+00  1.05893E+03  1.859E+00  1.200E+01  6.000E-02  1.620E+00
   1    8    6     2     5    5.1170E+01  2.9116E-01   5.0879E+01  0.000E+00  0.000E+00  0.000E+00  1.05421E+03  1.853E+00  1.200E+01  6.000E-02  1.618E+00
   1    3    5     3     1    2.0000E+00  2.8252E-01   1.7175E+00  0.000E+00  0.000E+00  0.000E+00  1.07555E+03  1.909E+00  9.636E+00  7.227E-02  1.955E+00
   1    3    6     3     2    1.7175E+00  2.4905E-01   1.4684E+00  0.000E+00  0.000E+00  0.000E+00  1.07264E+03  1.727E+00  8.909E+00  6.682E-02  1.864E+00
   1    3    7     3     3    1.4684E+00  1.9718E-01   1.2712E+00  0.000E+00  0.000E+00  0.000E+00  1.06987E+03  1.555E+00  8.218E+00  5.547E-02  1.777E+00
   1    4    8     3     4    1.2712E+00  2.2567E-01   1.0456E+00  0.000E+00  0.000E+00  0.000E+00  1.06682E+03  1.364E+00  7.455E+00  6.709E-02  1.682E+00
   1    5    8     3     5    1.0456E+00  1.5790E-01   8.8768E-01  0.000E+00  0.000E+00  0.000E+00  1.06362E+03  1.164E+00  6.655E+00  4.991E-02  1.582E+00
   1    6    8     3     6    8.8768E-01  5.5980E-02   8.3170E-01  0.000E+00  0.000E+00  0.000E+00  1.06158E+03  1.036E+00  6.145E+00  1.844E-02  1.518E+00
   1    5   10     4     1    1.0000E+01  9.0919E-02   9.9091E+00  0.000E+00  0.000E+00  0.000E+00  1.07836E+03  6.368E-01  1.000E+01  2.500E-02  1.212E+00
   1    5    9     4     2    9.9091E+00  1.8158E-01   9.7275E+00  0.000E+00  0.000E+00  0.000E+00  1.07154E+03  6.315E-01  1.000E+01  5.000E-02  1.211E+00
   1    6    8     4     3    9.7275E+00  1.2689E-01   9.6006E+00  0.000E+00  0.000E+00  0.000E+00  1.06381E+03  6.256E-01  1.000E+01  3.500E-02  1.209E+00
   1    6    8     5     1    1.0432E+01  2.2686E-01   1.0205E+01  0.000E+00  0.000E+00  0.000E+00  1.05868E+03  6.790E-01  1.542E+01  6.166E-02  1.226E+00
   1    7    7     5     2    1.0205E+01  2.7894E-01   9.9265E+00  0.000E+00  0.000E+00  0.000E+00  1.05417E+03  6.732E-01  1.519E+01  7.594E-02  1.224E+00
   1    8    7     5     3    9.9265E+00  1.9221E-01   9.7343E+00  0.000E+00  0.000E+00  0.000E+00  1.04992E+03  6.676E-01  1.497E+01  5.241E-02  1.223E+00
   1    8    6     5     4    9.7343E+00  1.3577E-01   9.5985E+00  0.000E+00  0.000E+00  0.000E+00  1.04691E+03  6.637E-01  1.482E+01  3.706E-02  1.221E+00
   1    9    6     6     1    9.5985E+00  2.2097E-01   9.3776E+00  0.000E+00  0.000E+00  0.000E+00  1.04341E+03  6.828E-01  1.200E+01  6.000E-02  1.228E+00
   1   10    7     6     2    9.3776E+00  2.2039E-01   9.1572E+00  0.000E+00  0.000E+00  0.000E+00  1.03885E+03  6.732E-01  1.200E+01  6.000E-02  1.224E+00
   1   11    7     6     3    9.1572E+00  2.1981E-01   8.9374E+00  0.000E+00  0.000E+00  0.000E+00  1.03430E+03  6.636E-01  1.200E+01  6.000E-02  1.221E+00
   1   12    7     6     4    8.9374E+00  2.1923E-01   8.7181E+00  0.000E+00  0.000E+00  0.000E+00  1.02974E+03  6.539E-01  1.200E+01  6.000E-02  1.218E+00
   1   13    7     6     5    8.7181E+00 -1.1356E-01   8.8317E+00  0.000E+00  0.000E+00  0.000E+00  1.02656E+03  6.515E-01  1.200E+01  2.400E-01 -1.577E-01
   1   14    9     7     1    1.5000E+02  1.3377E+00   1.4866E+02  0.000E+00  0.000E+00  0.000E+00  1.03987E+03  2.288E+00  5.529E+01  5.593E-01  7.973E-01
   1   13    8     7     2    1.4866E+02  1.8413E+00   1.4682E+02  0.000E+00  0.000E+00  0.000E+00  1.03478E+03  2.279E+00  5.526E+01  6.148E-01  9.984E-01
   1   13    7     7     3    1.4682E+02  1.4832E+00   1.4534E+02  0.000E+00  0.000E+00  0.000E+00  1.02969E+03  2.270E+00  5.522E+01  5.584E-01  8.853E-01
   1   13    6     8     1    1.5417E+02  8.3487E-01   1.5333E+02  0.000E+00  0.000E+00  0.000E+00  1.02472E+03  2.843E+00  4.122E+01  4.201E-01  6.625E-01
   1   13    5     8     2    1.5333E+02  1.0588E-01   1.5323E+02  0.000E+00  0.000E+00  0.000E+00  1.01846E+03  2.840E+00  4.118E+01  4.196E-01  8.411E-02
   1   13    4     8     3    1.5323E+02 -2.6604E+00   1.5589E+02  0.000E+00  0.000E+00  0.000E+00  1.01222E+03  2.849E+00  4.131E+01  4.209E+00 -2.107E-01
   1   13    3     8     4    1.5589E+02 -3.7428E+00   1.5963E+02  0.000E+00  0.000E+00  0.000E+00  1.00600E+03  2.871E+00  4.162E+01  4.242E+00 -2.941E-01
   1   13    2     8     5    1.5963E+02 -2.5999E+00   1.6223E+02  0.000E+00  0.000E+00  0.000E+00  9.99767E+02  2.892E+00  4.194E+01  4.273E+00 -2.028E-01
   1   13    1     8     6    1.6223E+02 -1.9811E+00   1.6421E+02  0.000E+00  0.000E+00  0.000E+00  9.94783E+02  2.908E+00  4.216E+01  2.578E+00 -2.562E-01
   1    8    6     9     1    5.0879E+01  0.0000E+00   5.0879E+01  0.000E+00  0.000E+00  0.000E+00  1.08476E+03  6.014E+00  4.000E+00  0.000E+00  3.005E+00
   1    8    5     9     2    5.0879E+01  0.0000E+00   5.0879E+01  0.000E+00  0.000E+00  0.000E+00  1.08426E+03  6.014E+00  4.000E+00  0.000E+00  3.005E+00



 UBDSV3 SAVING "           GW ET" ON UNIT  61 AT TIME STEP 1, STRESS PERIOD 8
 UBDSV3 SAVING "    UZF RECHARGE" ON UNIT  61 AT TIME STEP 1, STRESS PERIOD 8
 UBDSV3 SAVING " SURFACE LEAKAGE" ON UNIT  61 AT TIME STEP 1, STRESS PERIOD 8
 UBDSV3 SAVING "       HORT+DUNN" ON UNIT  61 AT TIME STEP 1, STRESS PERIOD 8
 UBDSV3 SAVING "  STORAGE CHANGE" ON UNIT  61 AT TIME STEP 1, STRESS PERIOD 8


UNSATURATED ZONE PACKAGE VOLUMETRIC BUDGET FOR  TIME STEP     1 STRESS PERIOD    8
  ------------------------------------------------------------------------------



     CUMULATIVE VOLUMES      L**3       RATES FOR THIS TIME STEP      L**3/T
     ------------------                 ------------------------

           IN:                                      IN:
           ---                                      ---
        INFILTRATION =    13521070.7322          INFILTRATION =           0.8475

          OUT:                                     OUT:
          ----                                     ----
              UZF ET =    13364037.1418                UZF ET =           0.8475
        UZF RECHARGE =       73224.0000          UZF RECHARGE =       0.0000E+00

            IN - OUT =       83809.5904              IN - OUT =       0.0000E+00

          STORAGE:                                 STORAGE:
          --------                                 --------
      STORAGE CHANGE =       83809.6438        STORAGE CHANGE =      -4.1498E-17

 PERCENT DISCREPANCY IS DIFFERENCE BETWEEN IN-OUT MINUS CHANGE IN STORAGE
 DIVIDED BY THE AVERAGE OF IN AND OUT TIMES 100

 PERCENT DISCREPANCY =           0.00     PERCENT DISCREPANCY =           0.00






1
  VOLUMETRIC BUDGET FOR ENTIRE MODEL AT END OF TIME STEP    1, STRESS PERIOD   8
  ------------------------------------------------------------------------------

     CUMULATIVE VOLUMES      L**3       RATES FOR THIS TIME STEP      L**3/T
     ------------------                 ------------------------

           IN:                                      IN:
           ---                                      ---
             STORAGE     =     9360598.0000               STORAGE     =           0.4541
       CONSTANT HEAD     =           0.0000         CONSTANT HEAD     =           0.0000
     HEAD DEP BOUNDS     =     4559231.0000       HEAD DEP BOUNDS     =           0.2859
      STREAM LEAKAGE     =   189708112.0000        STREAM LEAKAGE     =          12.2565
        UZF RECHARGE     =       73223.9531          UZF RECHARGE     =           0.0000
               GW ET     =           0.0000                 GW ET     =           0.0000
     SURFACE LEAKAGE     =           0.0000       SURFACE LEAKAGE     =           0.0000

                TOTAL IN =   203701152.0000                  TOTAL IN =          12.9965

          OUT:                                     OUT:
          ----                                     ----
             STORAGE     =    21823952.0000               STORAGE     =           1.6121
       CONSTANT HEAD     =           0.0000         CONSTANT HEAD     =           0.0000
     HEAD DEP BOUNDS     =     4578123.5000       HEAD DEP BOUNDS     =           0.2869
      STREAM LEAKAGE     =   177302528.0000        STREAM LEAKAGE     =          11.0977
        UZF RECHARGE     =           0.0000          UZF RECHARGE     =           0.0000
               GW ET     =           0.0000                 GW ET     =           0.0000
     SURFACE LEAKAGE     =           0.0000       SURFACE LEAKAGE     =           0.0000

               TOTAL OUT =   203704608.0000                 TOTAL OUT =          12.9968

                IN - OUT =       -3456.0000                  IN - OUT =      -3.2806E-04

     PERCENT DISCREPANCY =          -0.00         PERCENT DISCREPANCY =          -0.00






         TIME SUMMARY AT END OF TIME STEP    1 IN STRESS PERIOD    8
                    SECONDS     MINUTES      HOURS       DAYS        YEARS
                    -----------------------------------------------------------
   TIME STEP LENGTH  87667.      1461.1      24.352      1.0147     2.77799E-03
 STRESS PERIOD TIME  87667.      1461.1      24.352      1.0147     2.77799E-03
         TOTAL TIME 1.59541E+07 2.65901E+05  4431.7      184.65     0.50555    
1
 
 SOLVING FOR HEAD 
                                                   Max.-Head-Change                         Max.-Flux-Residual
  Residual-Control   Outer-Iter.   Inner-Iter.     Column Row Layer    Maximum-Head-Change  Column Row Layer    Maximum-Flux-Residual          L2-NORM 
          0                 1           2             1    1     1       0.4251239742E-02       1    1    1         0.2207156129E+00      0.4265883560E+00
          0                 2           2             1    1     1      -0.4135302991E-03       1    1    1        -0.2207160068E-01      0.4265883303E-01
          0                 3           1             1    1     1       0.2815987460E-04       1    1    1         0.1545012337E-02      0.2986116430E-02

    ------------------------------------------------
       NWT REQUIRED            3 OUTER ITERATIONS 
       AND A TOTAL OF          5 INNER ITERATIONS.
    ------------------------------------------------

 NO OUTPUT CONTROL FOR STRESS PERIOD    8   TIME STEP    2
 
 SOLVING FOR HEAD 
                                                   Max.-Head-Change                         Max.-Flux-Residual
  Residual-Control   Outer-Iter.   Inner-Iter.     Column Row Layer    Maximum-Head-Change  Column Row Layer    Maximum-Flux-Residual          L2-NORM 
          0                 1           2             1    1     1       0.4246335084E-02       1    1    1         0.2204604393E+00      0.4260178522E+00
          0                 2           2             1    1     1      -0.4130532070E-03       1    1    1        -0.2204608314E-01      0.4260178575E-01
          0                 3           1             1    1     1       0.2812738646E-04       1    1    1         0.1543226122E-02      0.2982122044E-02

    ------------------------------------------------
       NWT REQUIRED            3 OUTER ITERATIONS 
       AND A TOTAL OF          5 INNER ITERATIONS.
    ------------------------------------------------

 NO OUTPUT CONTROL FOR STRESS PERIOD    8   TIME STEP    3
 
 SOLVING FOR HEAD 
                                                   Max.-Head-Change                         Max.-Flux-Residual
  Residual-Control   Outer-Iter.   Inner-Iter.     Column Row Layer    Maximum-Head-Change  Column Row Layer    Maximum-Flux-Residual          L2-NORM 
          0                 1           2             1    1     1       0.4241425113E-02       1    1    1         0.2202049920E+00      0.4254546844E+00
          0                 2           2             1    1     1      -0.4125755984E-03       1    1    1        -0.2202053826E-01      0.4254546370E-01
          0                 3           1             1    1     1       0.2809486282E-04       1    1    1         0.1541437980E-02      0.2978179578E-02

    ------------------------------------------------
       NWT REQUIRED            3 OUTER ITERATIONS 
       AND A TOTAL OF          5 INNER ITERATIONS.
    ------------------------------------------------

 NO OUTPUT CONTROL FOR STRESS PERIOD    8   TIME STEP    4
 
 SOLVING FOR HEAD 
                                                   Max.-Head-Change                         Max.-Flux-Residual
  Residual-Control   Outer-Iter.   Inner-Iter.     Column Row Layer    Maximum-Head-Change  Column Row Layer    Maximum-Flux-Residual          L2-NORM 
          0                 1           2             1    1     1       0.4236554043E-02       1    1    1         0.2199515670E+00      0.4248997784E+00
          0                 2           2             1    1     1      -0.4121017732E-03       1    1    1        -0.2199519558E-01      0.4248997730E-01
          0                 3           1             1    1     1       0.2806259715E-04       1    1    1         0.1539663989E-02      0.2974298857E-02

    ------------------------------------------------
       NWT REQUIRED            3 OUTER ITERATIONS 
       AND A TOTAL OF          5 INNER ITERATIONS.
    ------------------------------------------------

 OUTPUT CONTROL FOR STRESS PERIOD    8   TIME STEP    5
    PRINT BUDGET
    SAVE BUDGET
 UBDSV1 SAVING "         STORAGE" ON UNIT 102 AT TIME STEP 5, STRESS PERIOD 8
 UBDSV2 SAVING "   CONSTANT HEAD" ON UNIT 102 AT TIME STEP 5, STRESS PERIOD 8
 UBDSV1 SAVING "FLOW RIGHT FACE " ON UNIT 102 AT TIME STEP 5, STRESS PERIOD 8
 UBDSV1 SAVING "FLOW FRONT FACE " ON UNIT 102 AT TIME STEP 5, STRESS PERIOD 8

  HEAD DEP BOUNDS   PERIOD    8   STEP     5
 BOUNDARY      1   LAYER   1   ROW    13   COL     1   RATE   -0.286940    
 BOUNDARY      2   LAYER   1   ROW    14   COL     9   RATE    0.285895    



 STREAM LISTING     PERIOD      8   STEP        5

 LAYER ROW COL. STREAM  RCH.  FLOW INTO     FLOW TO   FLOW OUT OF   OVRLND.     DIRECT     STREAM       STREAM     STREAM     STREAM   STREAMBED  STREAMBED
                SEG.NO.  NO.  STRM. RCH.    AQUIFER    STRM. RCH.    RUNOFF     PRECIP       ET          HEAD       DEPTH      WIDTH   CONDCTNC.   GRADIENT

   1    1    1     1     1    5.6250E+01  3.5875E-01   5.5891E+01  0.000E+00  0.000E+00  0.000E+00  1.09453E+03  1.479E+00  1.780E+01  8.010E-02  1.493E+00
   1    2    2     1     2    5.5891E+01  5.5550E-01   5.5336E+01  0.000E+00  0.000E+00  0.000E+00  1.08953E+03  1.473E+00  1.774E+01  1.242E-01  1.491E+00
   1    3    3     1     3    5.5336E+01  4.7368E-01   5.4862E+01  0.000E+00  0.000E+00  0.000E+00  1.08389E+03  1.467E+00  1.767E+01  1.060E-01  1.489E+00
   1    3    4     1     4    5.4862E+01  4.3613E-01   5.4426E+01  0.000E+00  0.000E+00  0.000E+00  1.07887E+03  1.461E+00  1.762E+01  9.777E-02  1.487E+00
   1    4    5     2     1    5.2426E+01  3.8056E-01   5.2046E+01  0.000E+00  0.000E+00  0.000E+00  1.07381E+03  1.879E+00  1.200E+01  7.800E-02  1.626E+00
   1    5    6     2     2    5.2046E+01  2.9230E-01   5.1753E+01  0.000E+00  0.000E+00  0.000E+00  1.06838E+03  1.872E+00  1.200E+01  6.000E-02  1.624E+00
   1    6    6     2     3    5.1753E+01  2.9192E-01   5.1461E+01  0.000E+00  0.000E+00  0.000E+00  1.06366E+03  1.865E+00  1.200E+01  6.000E-02  1.622E+00
   1    7    6     2     4    5.1461E+01  2.9154E-01   5.1170E+01  0.000E+00  0.000E+00  0.000E+00  1.05893E+03  1.859E+00  1.200E+01  6.000E-02  1.620E+00
   1    8    6     2     5    5.1170E+01  2.9116E-01   5.0879E+01  0.000E+00  0.000E+00  0.000E+00  1.05421E+03  1.853E+00  1.200E+01  6.000E-02  1.618E+00
   1    3    5     3     1    2.0000E+00  2.8252E-01   1.7175E+00  0.000E+00  0.000E+00  0.000E+00  1.07555E+03  1.909E+00  9.636E+00  7.227E-02  1.955E+00
   1    3    6     3     2    1.7175E+00  2.4905E-01   1.4684E+00  0.000E+00  0.000E+00  0.000E+00  1.07264E+03  1.727E+00  8.909E+00  6.682E-02  1.864E+00
   1    3    7     3     3    1.4684E+00  1.9718E-01   1.2712E+00  0.000E+00  0.000E+00  0.000E+00  1.06987E+03  1.555E+00  8.218E+00  5.547E-02  1.777E+00
   1    4    8     3     4    1.2712E+00  2.2567E-01   1.0456E+00  0.000E+00  0.000E+00  0.000E+00  1.06682E+03  1.364E+00  7.455E+00  6.709E-02  1.682E+00
   1    5    8     3     5    1.0456E+00  1.5790E-01   8.8768E-01  0.000E+00  0.000E+00  0.000E+00  1.06362E+03  1.164E+00  6.655E+00  4.991E-02  1.582E+00
   1    6    8     3     6    8.8768E-01  5.5980E-02   8.3170E-01  0.000E+00  0.000E+00  0.000E+00  1.06158E+03  1.036E+00  6.145E+00  1.844E-02  1.518E+00
   1    5   10     4     1    1.0000E+01  9.0919E-02   9.9091E+00  0.000E+00  0.000E+00  0.000E+00  1.07836E+03  6.368E-01  1.000E+01  2.500E-02  1.212E+00
   1    5    9     4     2    9.9091E+00  1.8158E-01   9.7275E+00  0.000E+00  0.000E+00  0.000E+00  1.07154E+03  6.315E-01  1.000E+01  5.000E-02  1.211E+00
   1    6    8     4     3    9.7275E+00  1.2689E-01   9.6006E+00  0.000E+00  0.000E+00  0.000E+00  1.06381E+03  6.256E-01  1.000E+01  3.500E-02  1.209E+00
   1    6    8     5     1    1.0432E+01  2.2686E-01   1.0205E+01  0.000E+00  0.000E+00  0.000E+00  1.05868E+03  6.790E-01  1.542E+01  6.166E-02  1.226E+00
   1    7    7     5     2    1.0205E+01  2.7894E-01   9.9265E+00  0.000E+00  0.000E+00  0.000E+00  1.05417E+03  6.732E-01  1.519E+01  7.594E-02  1.224E+00
   1    8    7     5     3    9.9265E+00  1.9221E-01   9.7343E+00  0.000E+00  0.000E+00  0.000E+00  1.04992E+03  6.676E-01  1.497E+01  5.241E-02  1.223E+00
   1    8    6     5     4    9.7343E+00  1.3577E-01   9.5985E+00  0.000E+00  0.000E+00  0.000E+00  1.04691E+03  6.637E-01  1.482E+01  3.706E-02  1.221E+00
   1    9    6     6     1    9.5985E+00  2.2097E-01   9.3776E+00  0.000E+00  0.000E+00  0.000E+00  1.04341E+03  6.828E-01  1.200E+01  6.000E-02  1.228E+00
   1   10    7     6     2    9.3776E+00  2.2039E-01   9.1572E+00  0.000E+00  0.000E+00  0.000E+00  1.03885E+03  6.732E-01  1.200E+01  6.000E-02  1.224E+00
   1   11    7     6     3    9.1572E+00  2.1981E-01   8.9374E+00  0.000E+00  0.000E+00  0.000E+00  1.03430E+03  6.636E-01  1.200E+01  6.000E-02  1.221E+00
   1   12    7     6     4    8.9374E+00  2.1923E-01   8.7181E+00  0.000E+00  0.000E+00  0.000E+00  1.02974E+03  6.539E-01  1.200E+01  6.000E-02  1.218E+00
   1   13    7     6     5    8.7181E+00 -1.1352E-01   8.8317E+00  0.000E+00  0.000E+00  0.000E+00  1.02656E+03  6.515E-01  1.200E+01  2.400E-01 -1.577E-01
   1   14    9     7     1    1.5000E+02  1.3378E+00   1.4866E+02  0.000E+00  0.000E+00  0.000E+00  1.03987E+03  2.288E+00  5.529E+01  5.593E-01  7.973E-01
   1   13    8     7     2    1.4866E+02  1.8414E+00   1.4682E+02  0.000E+00  0.000E+00  0.000E+00  1.03478E+03  2.279E+00  5.526E+01  6.148E-01  9.984E-01
   1   13    7     7     3    1.4682E+02  1.4833E+00   1.4534E+02  0.000E+00  0.000E+00  0.000E+00  1.02969E+03  2.270E+00  5.522E+01  5.584E-01  8.854E-01
   1   13    6     8     1    1.5417E+02  8.3496E-01   1.5333E+02  0.000E+00  0.000E+00  0.000E+00  1.02472E+03  2.843E+00  4.122E+01  4.201E-01  6.625E-01
   1   13    5     8     2    1.5333E+02  1.0595E-01   1.5323E+02  0.000E+00  0.000E+00  0.000E+00  1.01846E+03  2.840E+00  4.118E+01  4.196E-01  8.417E-02
   1   13    4     8     3    1.5323E+02 -2.6601E+00   1.5589E+02  0.000E+00  0.000E+00  0.000E+00  1.01222E+03  2.849E+00  4.131E+01  4.209E+00 -2.107E-01
   1   13    3     8     4    1.5589E+02 -3.7426E+00   1.5963E+02  0.000E+00  0.000E+00  0.000E+00  1.00600E+03  2.871E+00  4.162E+01  4.242E+00 -2.941E-01
   1   13    2     8     5    1.5963E+02 -2.5998E+00   1.6223E+02  0.000E+00  0.000E+00  0.000E+00  9.99767E+02  2.892E+00  4.194E+01  4.273E+00 -2.028E-01
   1   13    1     8     6    1.6223E+02 -1.9811E+00   1.6421E+02  0.000E+00  0.000E+00  0.000E+00  9.94782E+02  2.907E+00  4.216E+01  2.578E+00 -2.562E-01
   1    8    6     9     1    5.0879E+01  0.0000E+00   5.0879E+01  0.000E+00  0.000E+00  0.000E+00  1.08476E+03  6.014E+00  4.000E+00  0.000E+00  3.005E+00
   1    8    5     9     2    5.0879E+01  0.0000E+00   5.0879E+01  0.000E+00  0.000E+00  0.000E+00  1.08426E+03  6.014E+00  4.000E+00  0.000E+00  3.005E+00



 UBDSV3 SAVING "           GW ET" ON UNIT  61 AT TIME STEP 5, STRESS PERIOD 8
 UBDSV3 SAVING "    UZF RECHARGE" ON UNIT  61 AT TIME STEP 5, STRESS PERIOD 8
 UBDSV3 SAVING " SURFACE LEAKAGE" ON UNIT  61 AT TIME STEP 5, STRESS PERIOD 8
 UBDSV3 SAVING "       HORT+DUNN" ON UNIT  61 AT TIME STEP 5, STRESS PERIOD 8
 UBDSV3 SAVING "  STORAGE CHANGE" ON UNIT  61 AT TIME STEP 5, STRESS PERIOD 8


UNSATURATED ZONE PACKAGE VOLUMETRIC BUDGET FOR  TIME STEP     5 STRESS PERIOD    8
  ------------------------------------------------------------------------------



     CUMULATIVE VOLUMES      L**3       RATES FOR THIS TIME STEP      L**3/T
     ------------------                 ------------------------

           IN:                                      IN:
           ---                                      ---
        INFILTRATION =    13818260.7152          INFILTRATION =           0.8475

          OUT:                                     OUT:
          ----                                     ----
              UZF ET =    13661227.1248                UZF ET =           0.8475
        UZF RECHARGE =       73224.0000          UZF RECHARGE =       0.0000E+00

            IN - OUT =       83809.5904              IN - OUT =       0.0000E+00

          STORAGE:                                 STORAGE:
          --------                                 --------
      STORAGE CHANGE =       83809.6438        STORAGE CHANGE =      -4.1498E-17

 PERCENT DISCREPANCY IS DIFFERENCE BETWEEN IN-OUT MINUS CHANGE IN STORAGE
 DIVIDED BY THE AVERAGE OF IN AND OUT TIMES 100

 PERCENT DISCREPANCY =           0.00     PERCENT DISCREPANCY =           0.00






1
  VOLUMETRIC BUDGET FOR ENTIRE MODEL AT END OF TIME STEP    5, STRESS PERIOD   8
  ------------------------------------------------------------------------------

     CUMULATIVE VOLUMES      L**3       RATES FOR THIS TIME STEP      L**3/T
     ------------------                 ------------------------

           IN:                                      IN:
           ---                                      ---
             STORAGE     =     9518850.0000               STORAGE     =           0.4496
       CONSTANT HEAD     =           0.0000         CONSTANT HEAD     =           0.0000
     HEAD DEP BOUNDS     =     4659484.0000       HEAD DEP BOUNDS     =           0.2859
      STREAM LEAKAGE     =   194006144.0000        STREAM LEAKAGE     =          12.2569
        UZF RECHARGE     =       73223.9531          UZF RECHARGE     =           0.0000
               GW ET     =           0.0000                 GW ET     =           0.0000
     SURFACE LEAKAGE     =           0.0000       SURFACE LEAKAGE     =           0.0000

                TOTAL IN =   208257696.0000                  TOTAL IN =          12.9924

          OUT:                                     OUT:
          ----                                     ----
             STORAGE     =    22388496.0000               STORAGE     =           1.6086
       CONSTANT HEAD     =           0.0000         CONSTANT HEAD     =           0.0000
     HEAD DEP BOUNDS     =     4678743.5000       HEAD DEP BOUNDS     =           0.2869
      STREAM LEAKAGE     =   181194016.0000        STREAM LEAKAGE     =          11.0972
        UZF RECHARGE     =           0.0000          UZF RECHARGE     =           0.0000
               GW ET     =           0.0000                 GW ET     =           0.0000
     SURFACE LEAKAGE     =           0.0000       SURFACE LEAKAGE     =           0.0000

               TOTAL OUT =   208261248.0000                 TOTAL OUT =          12.9927

                IN - OUT =       -3552.0000                  IN - OUT =      -3.2806E-04

     PERCENT DISCREPANCY =          -0.00         PERCENT DISCREPANCY =          -0.00






         TIME SUMMARY AT END OF TIME STEP    5 IN STRESS PERIOD    8
                    SECONDS     MINUTES      HOURS       DAYS        YEARS
                    -----------------------------------------------------------
   TIME STEP LENGTH  87667.      1461.1      24.352      1.0147     2.77799E-03
 STRESS PERIOD TIME 4.38333E+05  7305.6      121.76      5.0733     1.38899E-02
         TOTAL TIME 1.63048E+07 2.71746E+05  4529.1      188.71     0.51667    
1
 
 SOLVING FOR HEAD 
                                                   Max.-Head-Change                         Max.-Flux-Residual
  Residual-Control   Outer-Iter.   Inner-Iter.     Column Row Layer    Maximum-Head-Change  Column Row Layer    Maximum-Flux-Residual          L2-NORM 
          0                 1           2             1    1     1       0.4231699659E-02       1    1    1         0.2196990101E+00      0.4243446329E+00
          0                 2           2             1    1     1      -0.4116295717E-03       1    1    1        -0.2196993973E-01      0.4243446487E-01
          0                 3           1             1    1     1       0.2803044248E-04       1    1    1         0.1537896089E-02      0.2970411804E-02

    ------------------------------------------------
       NWT REQUIRED            3 OUTER ITERATIONS 
       AND A TOTAL OF          5 INNER ITERATIONS.
    ------------------------------------------------

 NO OUTPUT CONTROL FOR STRESS PERIOD    8   TIME STEP    6
 
 SOLVING FOR HEAD 
                                                   Max.-Head-Change                         Max.-Flux-Residual
  Residual-Control   Outer-Iter.   Inner-Iter.     Column Row Layer    Maximum-Head-Change  Column Row Layer    Maximum-Flux-Residual          L2-NORM 
          0                 1           2             1    1     1       0.4226839762E-02       1    1    1         0.2194461692E+00      0.4237942949E+00
          0                 2           2             1    1     1      -0.4111568335E-03       1    1    1        -0.2194465545E-01      0.4237943110E-01
          0                 3           1             1    1     1       0.2799825042E-04       1    1    1         0.1536126186E-02      0.2966560750E-02

    ------------------------------------------------
       NWT REQUIRED            3 OUTER ITERATIONS 
       AND A TOTAL OF          5 INNER ITERATIONS.
    ------------------------------------------------

 NO OUTPUT CONTROL FOR STRESS PERIOD    8   TIME STEP    7
 
 SOLVING FOR HEAD 
                                                   Max.-Head-Change                         Max.-Flux-Residual
  Residual-Control   Outer-Iter.   Inner-Iter.     Column Row Layer    Maximum-Head-Change  Column Row Layer    Maximum-Flux-Residual          L2-NORM 
          0                 1           2             1    1     1       0.4222018606E-02       1    1    1         0.2191953408E+00      0.4232540917E+00
          0                 2           2             1    1     1      -0.4106878636E-03       1    1    1        -0.2191957244E-01      0.4232540733E-01
          0                 3           1             1    1     1       0.2796631539E-04       1    1    1         0.1534370374E-02      0.2962776943E-02

    ------------------------------------------------
       NWT REQUIRED            3 OUTER ITERATIONS 
       AND A TOTAL OF          5 INNER ITERATIONS.
    ------------------------------------------------

 NO OUTPUT CONTROL FOR STRESS PERIOD    8   TIME STEP    8
 
 SOLVING FOR HEAD 
                                                   Max.-Head-Change                         Max.-Flux-Residual
  Residual-Control   Outer-Iter.   Inner-Iter.     Column Row Layer    Maximum-Head-Change  Column Row Layer    Maximum-Flux-Residual          L2-NORM 
          0                 1           2             1    1     1       0.4217191812E-02       1    1    1         0.2189442224E+00      0.4227172738E+00
          0                 2           2             1    1     1      -0.4102183456E-03       1    1    1        -0.2189446042E-01      0.4227172361E-01
          0                 3           1             1    1     1       0.2793434320E-04       1    1    1         0.1532612542E-02      0.2959020196E-02

    ------------------------------------------------
       NWT REQUIRED            3 OUTER ITERATIONS 
       AND A TOTAL OF          5 INNER ITERATIONS.
    ------------------------------------------------

 NO OUTPUT CONTROL FOR STRESS PERIOD    8   TIME STEP    9
 
 SOLVING FOR HEAD 
                                                   Max.-Head-Change                         Max.-Flux-Residual
  Residual-Control   Outer-Iter.   Inner-Iter.     Column Row Layer    Maximum-Head-Change  Column Row Layer    Maximum-Flux-Residual          L2-NORM 
          0                 1           2             1    1     1       0.4212381477E-02       1    1    1         0.2186939611E+00      0.4221833243E+00
          0                 2           2             1    1     1      -0.4097504287E-03       1    1    1        -0.2186943413E-01      0.4221833162E-01
          0                 3           1             1    1     1       0.2790247964E-04       1    1    1         0.1530860693E-02      0.2955285137E-02

    ------------------------------------------------
       NWT REQUIRED            3 OUTER ITERATIONS 
       AND A TOTAL OF          5 INNER ITERATIONS.
    ------------------------------------------------

 OUTPUT CONTROL FOR STRESS PERIOD    8   TIME STEP   10
    PRINT BUDGET
    SAVE BUDGET
 UBDSV1 SAVING "         STORAGE" ON UNIT 102 AT TIME STEP 10, STRESS PERIOD 8
 UBDSV2 SAVING "   CONSTANT HEAD" ON UNIT 102 AT TIME STEP 10, STRESS PERIOD 8
 UBDSV1 SAVING "FLOW RIGHT FACE " ON UNIT 102 AT TIME STEP 10, STRESS PERIOD 8
 UBDSV1 SAVING "FLOW FRONT FACE " ON UNIT 102 AT TIME STEP 10, STRESS PERIOD 8

  HEAD DEP BOUNDS   PERIOD    8   STEP    10
 BOUNDARY      1   LAYER   1   ROW    13   COL     1   RATE   -0.286939    
 BOUNDARY      2   LAYER   1   ROW    14   COL     9   RATE    0.285901    



 STREAM LISTING     PERIOD      8   STEP       10

 LAYER ROW COL. STREAM  RCH.  FLOW INTO     FLOW TO   FLOW OUT OF   OVRLND.     DIRECT     STREAM       STREAM     STREAM     STREAM   STREAMBED  STREAMBED
                SEG.NO.  NO.  STRM. RCH.    AQUIFER    STRM. RCH.    RUNOFF     PRECIP       ET          HEAD       DEPTH      WIDTH   CONDCTNC.   GRADIENT

   1    1    1     1     1    5.6250E+01  3.5875E-01   5.5891E+01  0.000E+00  0.000E+00  0.000E+00  1.09453E+03  1.479E+00  1.780E+01  8.010E-02  1.493E+00
   1    2    2     1     2    5.5891E+01  5.5550E-01   5.5336E+01  0.000E+00  0.000E+00  0.000E+00  1.08953E+03  1.473E+00  1.774E+01  1.242E-01  1.491E+00
   1    3    3     1     3    5.5336E+01  4.7368E-01   5.4862E+01  0.000E+00  0.000E+00  0.000E+00  1.08389E+03  1.467E+00  1.767E+01  1.060E-01  1.489E+00
   1    3    4     1     4    5.4862E+01  4.3613E-01   5.4426E+01  0.000E+00  0.000E+00  0.000E+00  1.07887E+03  1.461E+00  1.762E+01  9.777E-02  1.487E+00
   1    4    5     2     1    5.2426E+01  3.8056E-01   5.2046E+01  0.000E+00  0.000E+00  0.000E+00  1.07381E+03  1.879E+00  1.200E+01  7.800E-02  1.626E+00
   1    5    6     2     2    5.2046E+01  2.9230E-01   5.1753E+01  0.000E+00  0.000E+00  0.000E+00  1.06838E+03  1.872E+00  1.200E+01  6.000E-02  1.624E+00
   1    6    6     2     3    5.1753E+01  2.9192E-01   5.1461E+01  0.000E+00  0.000E+00  0.000E+00  1.06366E+03  1.865E+00  1.200E+01  6.000E-02  1.622E+00
   1    7    6     2     4    5.1461E+01  2.9154E-01   5.1170E+01  0.000E+00  0.000E+00  0.000E+00  1.05893E+03  1.859E+00  1.200E+01  6.000E-02  1.620E+00
   1    8    6     2     5    5.1170E+01  2.9116E-01   5.0879E+01  0.000E+00  0.000E+00  0.000E+00  1.05421E+03  1.853E+00  1.200E+01  6.000E-02  1.618E+00
   1    3    5     3     1    2.0000E+00  2.8252E-01   1.7175E+00  0.000E+00  0.000E+00  0.000E+00  1.07555E+03  1.909E+00  9.636E+00  7.227E-02  1.955E+00
   1    3    6     3     2    1.7175E+00  2.4905E-01   1.4684E+00  0.000E+00  0.000E+00  0.000E+00  1.07264E+03  1.727E+00  8.909E+00  6.682E-02  1.864E+00
   1    3    7     3     3    1.4684E+00  1.9718E-01   1.2712E+00  0.000E+00  0.000E+00  0.000E+00  1.06987E+03  1.555E+00  8.218E+00  5.547E-02  1.777E+00
   1    4    8     3     4    1.2712E+00  2.2567E-01   1.0456E+00  0.000E+00  0.000E+00  0.000E+00  1.06682E+03  1.364E+00  7.455E+00  6.709E-02  1.682E+00
   1    5    8     3     5    1.0456E+00  1.5790E-01   8.8768E-01  0.000E+00  0.000E+00  0.000E+00  1.06362E+03  1.164E+00  6.655E+00  4.991E-02  1.582E+00
   1    6    8     3     6    8.8768E-01  5.5980E-02   8.3170E-01  0.000E+00  0.000E+00  0.000E+00  1.06158E+03  1.036E+00  6.145E+00  1.844E-02  1.518E+00
   1    5   10     4     1    1.0000E+01  9.0919E-02   9.9091E+00  0.000E+00  0.000E+00  0.000E+00  1.07836E+03  6.368E-01  1.000E+01  2.500E-02  1.212E+00
   1    5    9     4     2    9.9091E+00  1.8158E-01   9.7275E+00  0.000E+00  0.000E+00  0.000E+00  1.07154E+03  6.315E-01  1.000E+01  5.000E-02  1.211E+00
   1    6    8     4     3    9.7275E+00  1.2689E-01   9.6006E+00  0.000E+00  0.000E+00  0.000E+00  1.06381E+03  6.256E-01  1.000E+01  3.500E-02  1.209E+00
   1    6    8     5     1    1.0432E+01  2.2686E-01   1.0205E+01  0.000E+00  0.000E+00  0.000E+00  1.05868E+03  6.790E-01  1.542E+01  6.166E-02  1.226E+00
   1    7    7     5     2    1.0205E+01  2.7894E-01   9.9265E+00  0.000E+00  0.000E+00  0.000E+00  1.05417E+03  6.732E-01  1.519E+01  7.594E-02  1.224E+00
   1    8    7     5     3    9.9265E+00  1.9221E-01   9.7343E+00  0.000E+00  0.000E+00  0.000E+00  1.04992E+03  6.676E-01  1.497E+01  5.241E-02  1.223E+00
   1    8    6     5     4    9.7343E+00  1.3577E-01   9.5985E+00  0.000E+00  0.000E+00  0.000E+00  1.04691E+03  6.637E-01  1.482E+01  3.706E-02  1.221E+00
   1    9    6     6     1    9.5985E+00  2.2097E-01   9.3776E+00  0.000E+00  0.000E+00  0.000E+00  1.04341E+03  6.828E-01  1.200E+01  6.000E-02  1.228E+00
   1   10    7     6     2    9.3776E+00  2.2039E-01   9.1572E+00  0.000E+00  0.000E+00  0.000E+00  1.03885E+03  6.732E-01  1.200E+01  6.000E-02  1.224E+00
   1   11    7     6     3    9.1572E+00  2.1981E-01   8.9374E+00  0.000E+00  0.000E+00  0.000E+00  1.03430E+03  6.636E-01  1.200E+01  6.000E-02  1.221E+00
   1   12    7     6     4    8.9374E+00  2.1923E-01   8.7181E+00  0.000E+00  0.000E+00  0.000E+00  1.02974E+03  6.539E-01  1.200E+01  6.000E-02  1.218E+00
   1   13    7     6     5    8.7181E+00 -1.1347E-01   8.8316E+00  0.000E+00  0.000E+00  0.000E+00  1.02656E+03  6.515E-01  1.200E+01  2.400E-01 -1.576E-01
   1   14    9     7     1    1.5000E+02  1.3379E+00   1.4866E+02  0.000E+00  0.000E+00  0.000E+00  1.03987E+03  2.288E+00  5.529E+01  5.593E-01  7.974E-01
   1   13    8     7     2    1.4866E+02  1.8415E+00   1.4682E+02  0.000E+00  0.000E+00  0.000E+00  1.03478E+03  2.279E+00  5.526E+01  6.148E-01  9.985E-01
   1   13    7     7     3    1.4682E+02  1.4834E+00   1.4534E+02  0.000E+00  0.000E+00  0.000E+00  1.02969E+03  2.270E+00  5.522E+01  5.584E-01  8.854E-01
   1   13    6     8     1    1.5417E+02  8.3508E-01   1.5333E+02  0.000E+00  0.000E+00  0.000E+00  1.02472E+03  2.843E+00  4.122E+01  4.201E-01  6.626E-01
   1   13    5     8     2    1.5333E+02  1.0604E-01   1.5323E+02  0.000E+00  0.000E+00  0.000E+00  1.01846E+03  2.840E+00  4.118E+01  4.196E-01  8.424E-02
   1   13    4     8     3    1.5323E+02 -2.6598E+00   1.5589E+02  0.000E+00  0.000E+00  0.000E+00  1.01222E+03  2.849E+00  4.131E+01  4.209E+00 -2.106E-01
   1   13    3     8     4    1.5589E+02 -3.7424E+00   1.5963E+02  0.000E+00  0.000E+00  0.000E+00  1.00600E+03  2.871E+00  4.162E+01  4.242E+00 -2.941E-01
   1   13    2     8     5    1.5963E+02 -2.5997E+00   1.6223E+02  0.000E+00  0.000E+00  0.000E+00  9.99767E+02  2.892E+00  4.194E+01  4.273E+00 -2.028E-01
   1   13    1     8     6    1.6223E+02 -1.9811E+00   1.6421E+02  0.000E+00  0.000E+00  0.000E+00  9.94782E+02  2.907E+00  4.216E+01  2.578E+00 -2.562E-01
   1    8    6     9     1    5.0879E+01  0.0000E+00   5.0879E+01  0.000E+00  0.000E+00  0.000E+00  1.08476E+03  6.014E+00  4.000E+00  0.000E+00  3.005E+00
   1    8    5     9     2    5.0879E+01  0.0000E+00   5.0879E+01  0.000E+00  0.000E+00  0.000E+00  1.08426E+03  6.014E+00  4.000E+00  0.000E+00  3.005E+00



 UBDSV3 SAVING "           GW ET" ON UNIT  61 AT TIME STEP 10, STRESS PERIOD 8
 UBDSV3 SAVING "    UZF RECHARGE" ON UNIT  61 AT TIME STEP 10, STRESS PERIOD 8
 UBDSV3 SAVING " SURFACE LEAKAGE" ON UNIT  61 AT TIME STEP 10, STRESS PERIOD 8
 UBDSV3 SAVING "       HORT+DUNN" ON UNIT  61 AT TIME STEP 10, STRESS PERIOD 8
 UBDSV3 SAVING "  STORAGE CHANGE" ON UNIT  61 AT TIME STEP 10, STRESS PERIOD 8


UNSATURATED ZONE PACKAGE VOLUMETRIC BUDGET FOR  TIME STEP    10 STRESS PERIOD    8
  ------------------------------------------------------------------------------



     CUMULATIVE VOLUMES      L**3       RATES FOR THIS TIME STEP      L**3/T
     ------------------                 ------------------------

           IN:                                      IN:
           ---                                      ---
        INFILTRATION =    14189748.1940          INFILTRATION =           0.8475

          OUT:                                     OUT:
          ----                                     ----
              UZF ET =    14032714.6036                UZF ET =           0.8475
        UZF RECHARGE =       73224.0000          UZF RECHARGE =       0.0000E+00

            IN - OUT =       83809.5904              IN - OUT =       0.0000E+00

          STORAGE:                                 STORAGE:
          --------                                 --------
      STORAGE CHANGE =       83809.6438        STORAGE CHANGE =       4.1498E-17

 PERCENT DISCREPANCY IS DIFFERENCE BETWEEN IN-OUT MINUS CHANGE IN STORAGE
 DIVIDED BY THE AVERAGE OF IN AND OUT TIMES 100

 PERCENT DISCREPANCY =           0.00     PERCENT DISCREPANCY =           0.00






1
  VOLUMETRIC BUDGET FOR ENTIRE MODEL AT END OF TIME STEP   10, STRESS PERIOD   8
  ------------------------------------------------------------------------------

     CUMULATIVE VOLUMES      L**3       RATES FOR THIS TIME STEP      L**3/T
     ------------------                 ------------------------

           IN:                                      IN:
           ---                                      ---
             STORAGE     =     9714440.0000               STORAGE     =           0.4440
       CONSTANT HEAD     =           0.0000         CONSTANT HEAD     =           0.0000
     HEAD DEP BOUNDS     =     4784803.0000       HEAD DEP BOUNDS     =           0.2859
      STREAM LEAKAGE     =   199378880.0000        STREAM LEAKAGE     =          12.2574
        UZF RECHARGE     =       73223.9531          UZF RECHARGE     =           0.0000
               GW ET     =           0.0000                 GW ET     =           0.0000
     SURFACE LEAKAGE     =           0.0000       SURFACE LEAKAGE     =           0.0000

                TOTAL IN =   213951344.0000                  TOTAL IN =          12.9873

          OUT:                                     OUT:
          ----                                     ----
             STORAGE     =    23092438.0000               STORAGE     =           1.6042
       CONSTANT HEAD     =           0.0000         CONSTANT HEAD     =           0.0000
     HEAD DEP BOUNDS     =     4804518.5000       HEAD DEP BOUNDS     =           0.2869
      STREAM LEAKAGE     =   186058080.0000        STREAM LEAKAGE     =          11.0965
        UZF RECHARGE     =           0.0000          UZF RECHARGE     =           0.0000
               GW ET     =           0.0000                 GW ET     =           0.0000
     SURFACE LEAKAGE     =           0.0000       SURFACE LEAKAGE     =           0.0000

               TOTAL OUT =   213955040.0000                 TOTAL OUT =          12.9876

                IN - OUT =       -3696.0000                  IN - OUT =      -3.2711E-04

     PERCENT DISCREPANCY =          -0.00         PERCENT DISCREPANCY =          -0.00






         TIME SUMMARY AT END OF TIME STEP   10 IN STRESS PERIOD    8
                    SECONDS     MINUTES      HOURS       DAYS        YEARS
                    -----------------------------------------------------------
   TIME STEP LENGTH  87667.      1461.1      24.352      1.0147     2.77799E-03
 STRESS PERIOD TIME 8.76667E+05  14611.      243.52      10.147     2.77799E-02
         TOTAL TIME 1.67431E+07 2.79052E+05  4650.9      193.79     0.53056    
1
 
 SOLVING FOR HEAD 
                                                   Max.-Head-Change                         Max.-Flux-Residual
  Residual-Control   Outer-Iter.   Inner-Iter.     Column Row Layer    Maximum-Head-Change  Column Row Layer    Maximum-Flux-Residual          L2-NORM 
          0                 1           2             1    1     1       0.4207609701E-02       1    1    1         0.2184457029E+00      0.4216506674E+00
          0                 2           2             1    1     1      -0.4092862623E-03       1    1    1        -0.2184460814E-01      0.4216506746E-01
          0                 3           1             1    1     1       0.2787087145E-04       1    1    1         0.1529122871E-02      0.2951554238E-02

    ------------------------------------------------
       NWT REQUIRED            3 OUTER ITERATIONS 
       AND A TOTAL OF          5 INNER ITERATIONS.
    ------------------------------------------------

 NO OUTPUT CONTROL FOR STRESS PERIOD    8   TIME STEP   11
 
 SOLVING FOR HEAD 
                                                   Max.-Head-Change                         Max.-Flux-Residual
  Residual-Control   Outer-Iter.   Inner-Iter.     Column Row Layer    Maximum-Head-Change  Column Row Layer    Maximum-Flux-Residual          L2-NORM 
          0                 1           2             1    1     1       0.4202787801E-02       1    1    1         0.2181948430E+00      0.4211189224E+00
          0                 2           2             1    1     1      -0.4088172204E-03       1    1    1        -0.2181952200E-01      0.4211189808E-01
          0                 3           1             1    1     1       0.2783893121E-04       1    1    1         0.1527366835E-02      0.2963267625E-02

    ------------------------------------------------
       NWT REQUIRED            3 OUTER ITERATIONS 
       AND A TOTAL OF          5 INNER ITERATIONS.
    ------------------------------------------------

 NO OUTPUT CONTROL FOR STRESS PERIOD    8   TIME STEP   12
 
 SOLVING FOR HEAD 
                                                   Max.-Head-Change                         Max.-Flux-Residual
  Residual-Control   Outer-Iter.   Inner-Iter.     Column Row Layer    Maximum-Head-Change  Column Row Layer    Maximum-Flux-Residual          L2-NORM 
          0                 1           2             1    1     1       0.4198048701E-02       1    1    1         0.2179482868E+00      0.4205942129E+00
          0                 2           2             1    1     1      -0.4083562327E-03       1    1    1        -0.2179486620E-01      0.4205942308E-01
          0                 3           1             1    1     1       0.2780754005E-04       1    1    1         0.1525640931E-02      0.2944161669E-02

    ------------------------------------------------
       NWT REQUIRED            3 OUTER ITERATIONS 
       AND A TOTAL OF          5 INNER ITERATIONS.
    ------------------------------------------------

 NO OUTPUT CONTROL FOR STRESS PERIOD    8   TIME STEP   13
 
 SOLVING FOR HEAD 
                                                   Max.-Head-Change                         Max.-Flux-Residual
  Residual-Control   Outer-Iter.   Inner-Iter.     Column Row Layer    Maximum-Head-Change  Column Row Layer    Maximum-Flux-Residual          L2-NORM 
          0                 1           2             1    1     1       0.4193303653E-02       1    1    1         0.2177014222E+00      0.4200748352E+00
          0                 2           2             1    1     1      -0.4078946666E-03       1    1    1        -0.2177017959E-01      0.4200748759E-01
          0                 3           1             1    1     1       0.2777610913E-04       1    1    1         0.1523912868E-02      0.2940523852E-02

    ------------------------------------------------
       NWT REQUIRED            3 OUTER ITERATIONS 
       AND A TOTAL OF          5 INNER ITERATIONS.
    ------------------------------------------------

 NO OUTPUT CONTROL FOR STRESS PERIOD    8   TIME STEP   14
 
 SOLVING FOR HEAD 
                                                   Max.-Head-Change                         Max.-Flux-Residual
  Residual-Control   Outer-Iter.   Inner-Iter.     Column Row Layer    Maximum-Head-Change  Column Row Layer    Maximum-Flux-Residual          L2-NORM 
          0                 1           2             1    1     1       0.4188574777E-02       1    1    1         0.2174553993E+00      0.4195600681E+00
          0                 2           2             1    1     1      -0.4074346731E-03       1    1    1        -0.2174557713E-01      0.4195600396E-01
          0                 3           1             1    1     1       0.2774478542E-04       1    1    1         0.1522190703E-02      0.2936915534E-02

    ------------------------------------------------
       NWT REQUIRED            3 OUTER ITERATIONS 
       AND A TOTAL OF          5 INNER ITERATIONS.
    ------------------------------------------------

 OUTPUT CONTROL FOR STRESS PERIOD    8   TIME STEP   15
    PRINT BUDGET
    SAVE BUDGET
 UBDSV1 SAVING "         STORAGE" ON UNIT 102 AT TIME STEP 15, STRESS PERIOD 8
 UBDSV2 SAVING "   CONSTANT HEAD" ON UNIT 102 AT TIME STEP 15, STRESS PERIOD 8
 UBDSV1 SAVING "FLOW RIGHT FACE " ON UNIT 102 AT TIME STEP 15, STRESS PERIOD 8
 UBDSV1 SAVING "FLOW FRONT FACE " ON UNIT 102 AT TIME STEP 15, STRESS PERIOD 8

  HEAD DEP BOUNDS   PERIOD    8   STEP    15
 BOUNDARY      1   LAYER   1   ROW    13   COL     1   RATE   -0.286939    
 BOUNDARY      2   LAYER   1   ROW    14   COL     9   RATE    0.285907    



 STREAM LISTING     PERIOD      8   STEP       15

 LAYER ROW COL. STREAM  RCH.  FLOW INTO     FLOW TO   FLOW OUT OF   OVRLND.     DIRECT     STREAM       STREAM     STREAM     STREAM   STREAMBED  STREAMBED
                SEG.NO.  NO.  STRM. RCH.    AQUIFER    STRM. RCH.    RUNOFF     PRECIP       ET          HEAD       DEPTH      WIDTH   CONDCTNC.   GRADIENT

   1    1    1     1     1    5.6250E+01  3.5874E-01   5.5891E+01  0.000E+00  0.000E+00  0.000E+00  1.09453E+03  1.479E+00  1.780E+01  8.010E-02  1.493E+00
   1    2    2     1     2    5.5891E+01  5.5550E-01   5.5335E+01  0.000E+00  0.000E+00  0.000E+00  1.08953E+03  1.473E+00  1.774E+01  1.242E-01  1.491E+00
   1    3    3     1     3    5.5335E+01  4.7368E-01   5.4862E+01  0.000E+00  0.000E+00  0.000E+00  1.08389E+03  1.467E+00  1.767E+01  1.060E-01  1.489E+00
   1    3    4     1     4    5.4862E+01  4.3613E-01   5.4426E+01  0.000E+00  0.000E+00  0.000E+00  1.07887E+03  1.461E+00  1.762E+01  9.777E-02  1.487E+00
   1    4    5     2     1    5.2426E+01  3.8056E-01   5.2045E+01  0.000E+00  0.000E+00  0.000E+00  1.07381E+03  1.879E+00  1.200E+01  7.800E-02  1.626E+00
   1    5    6     2     2    5.2045E+01  2.9230E-01   5.1753E+01  0.000E+00  0.000E+00  0.000E+00  1.06838E+03  1.872E+00  1.200E+01  6.000E-02  1.624E+00
   1    6    6     2     3    5.1753E+01  2.9192E-01   5.1461E+01  0.000E+00  0.000E+00  0.000E+00  1.06366E+03  1.865E+00  1.200E+01  6.000E-02  1.622E+00
   1    7    6     2     4    5.1461E+01  2.9154E-01   5.1169E+01  0.000E+00  0.000E+00  0.000E+00  1.05893E+03  1.859E+00  1.200E+01  6.000E-02  1.620E+00
   1    8    6     2     5    5.1169E+01  2.9116E-01   5.0878E+01  0.000E+00  0.000E+00  0.000E+00  1.05421E+03  1.853E+00  1.200E+01  6.000E-02  1.618E+00
   1    3    5     3     1    2.0000E+00  2.8252E-01   1.7175E+00  0.000E+00  0.000E+00  0.000E+00  1.07555E+03  1.909E+00  9.636E+00  7.227E-02  1.955E+00
   1    3    6     3     2    1.7175E+00  2.4905E-01   1.4684E+00  0.000E+00  0.000E+00  0.000E+00  1.07264E+03  1.727E+00  8.909E+00  6.682E-02  1.864E+00
   1    3    7     3     3    1.4684E+00  1.9718E-01   1.2712E+00  0.000E+00  0.000E+00  0.000E+00  1.06987E+03  1.555E+00  8.218E+00  5.547E-02  1.777E+00
   1    4    8     3     4    1.2712E+00  2.2567E-01   1.0456E+00  0.000E+00  0.000E+00  0.000E+00  1.06682E+03  1.364E+00  7.455E+00  6.709E-02  1.682E+00
   1    5    8     3     5    1.0456E+00  1.5790E-01   8.8768E-01  0.000E+00  0.000E+00  0.000E+00  1.06362E+03  1.164E+00  6.655E+00  4.991E-02  1.582E+00
   1    6    8     3     6    8.8768E-01  5.5980E-02   8.3170E-01  0.000E+00  0.000E+00  0.000E+00  1.06158E+03  1.036E+00  6.145E+00  1.844E-02  1.518E+00
   1    5   10     4     1    1.0000E+01  9.0919E-02   9.9091E+00  0.000E+00  0.000E+00  0.000E+00  1.07836E+03  6.368E-01  1.000E+01  2.500E-02  1.212E+00
   1    5    9     4     2    9.9091E+00  1.8158E-01   9.7275E+00  0.000E+00  0.000E+00  0.000E+00  1.07154E+03  6.315E-01  1.000E+01  5.000E-02  1.211E+00
   1    6    8     4     3    9.7275E+00  1.2689E-01   9.6006E+00  0.000E+00  0.000E+00  0.000E+00  1.06381E+03  6.256E-01  1.000E+01  3.500E-02  1.209E+00
   1    6    8     5     1    1.0432E+01  2.2686E-01   1.0205E+01  0.000E+00  0.000E+00  0.000E+00  1.05868E+03  6.790E-01  1.542E+01  6.166E-02  1.226E+00
   1    7    7     5     2    1.0205E+01  2.7894E-01   9.9265E+00  0.000E+00  0.000E+00  0.000E+00  1.05417E+03  6.732E-01  1.519E+01  7.594E-02  1.224E+00
   1    8    7     5     3    9.9265E+00  1.9221E-01   9.7343E+00  0.000E+00  0.000E+00  0.000E+00  1.04992E+03  6.676E-01  1.497E+01  5.241E-02  1.223E+00
   1    8    6     5     4    9.7343E+00  1.3577E-01   9.5985E+00  0.000E+00  0.000E+00  0.000E+00  1.04691E+03  6.637E-01  1.482E+01  3.706E-02  1.221E+00
   1    9    6     6     1    9.5985E+00  2.2097E-01   9.3776E+00  0.000E+00  0.000E+00  0.000E+00  1.04341E+03  6.828E-01  1.200E+01  6.000E-02  1.228E+00
   1   10    7     6     2    9.3776E+00  2.2039E-01   9.1572E+00  0.000E+00  0.000E+00  0.000E+00  1.03885E+03  6.732E-01  1.200E+01  6.000E-02  1.224E+00
   1   11    7     6     3    9.1572E+00  2.1981E-01   8.9374E+00  0.000E+00  0.000E+00  0.000E+00  1.03430E+03  6.636E-01  1.200E+01  6.000E-02  1.221E+00
   1   12    7     6     4    8.9374E+00  2.1923E-01   8.7181E+00  0.000E+00  0.000E+00  0.000E+00  1.02974E+03  6.539E-01  1.200E+01  6.000E-02  1.218E+00
   1   13    7     6     5    8.7181E+00 -1.1342E-01   8.8316E+00  0.000E+00  0.000E+00  0.000E+00  1.02656E+03  6.515E-01  1.200E+01  2.400E-01 -1.575E-01
   1   14    9     7     1    1.5000E+02  1.3380E+00   1.4866E+02  0.000E+00  0.000E+00  0.000E+00  1.03987E+03  2.288E+00  5.529E+01  5.593E-01  7.974E-01
   1   13    8     7     2    1.4866E+02  1.8417E+00   1.4682E+02  0.000E+00  0.000E+00  0.000E+00  1.03478E+03  2.279E+00  5.526E+01  6.148E-01  9.986E-01
   1   13    7     7     3    1.4682E+02  1.4835E+00   1.4534E+02  0.000E+00  0.000E+00  0.000E+00  1.02969E+03  2.270E+00  5.522E+01  5.584E-01  8.855E-01
   1   13    6     8     1    1.5417E+02  8.3520E-01   1.5333E+02  0.000E+00  0.000E+00  0.000E+00  1.02472E+03  2.843E+00  4.122E+01  4.201E-01  6.627E-01
   1   13    5     8     2    1.5333E+02  1.0613E-01   1.5323E+02  0.000E+00  0.000E+00  0.000E+00  1.01846E+03  2.840E+00  4.118E+01  4.196E-01  8.431E-02
   1   13    4     8     3    1.5323E+02 -2.6595E+00   1.5589E+02  0.000E+00  0.000E+00  0.000E+00  1.01222E+03  2.849E+00  4.131E+01  4.209E+00 -2.106E-01
   1   13    3     8     4    1.5589E+02 -3.7422E+00   1.5963E+02  0.000E+00  0.000E+00  0.000E+00  1.00600E+03  2.871E+00  4.162E+01  4.242E+00 -2.941E-01
   1   13    2     8     5    1.5963E+02 -2.5996E+00   1.6223E+02  0.000E+00  0.000E+00  0.000E+00  9.99767E+02  2.892E+00  4.194E+01  4.273E+00 -2.028E-01
   1   13    1     8     6    1.6223E+02 -1.9810E+00   1.6421E+02  0.000E+00  0.000E+00  0.000E+00  9.94782E+02  2.907E+00  4.216E+01  2.578E+00 -2.562E-01
   1    8    6     9     1    5.0878E+01  0.0000E+00   5.0878E+01  0.000E+00  0.000E+00  0.000E+00  1.08476E+03  6.014E+00  4.000E+00  0.000E+00  3.005E+00
   1    8    5     9     2    5.0878E+01  0.0000E+00   5.0878E+01  0.000E+00  0.000E+00  0.000E+00  1.08426E+03  6.014E+00  4.000E+00  0.000E+00  3.005E+00



 UBDSV3 SAVING "           GW ET" ON UNIT  61 AT TIME STEP 15, STRESS PERIOD 8
 UBDSV3 SAVING "    UZF RECHARGE" ON UNIT  61 AT TIME STEP 15, STRESS PERIOD 8
 UBDSV3 SAVING " SURFACE LEAKAGE" ON UNIT  61 AT TIME STEP 15, STRESS PERIOD 8
 UBDSV3 SAVING "       HORT+DUNN" ON UNIT  61 AT TIME STEP 15, STRESS PERIOD 8
 UBDSV3 SAVING "  STORAGE CHANGE" ON UNIT  61 AT TIME STEP 15, STRESS PERIOD 8


UNSATURATED ZONE PACKAGE VOLUMETRIC BUDGET FOR  TIME STEP    15 STRESS PERIOD    8
  ------------------------------------------------------------------------------



     CUMULATIVE VOLUMES      L**3       RATES FOR THIS TIME STEP      L**3/T
     ------------------                 ------------------------

           IN:                                      IN:
           ---                                      ---
        INFILTRATION =    14561235.6728          INFILTRATION =           0.8475

          OUT:                                     OUT:
          ----                                     ----
              UZF ET =    14404202.0824                UZF ET =           0.8475
        UZF RECHARGE =       73224.0000          UZF RECHARGE =       0.0000E+00

            IN - OUT =       83809.5904              IN - OUT =       0.0000E+00

          STORAGE:                                 STORAGE:
          --------                                 --------
      STORAGE CHANGE =       83809.6438        STORAGE CHANGE =       0.0000E+00

 PERCENT DISCREPANCY IS DIFFERENCE BETWEEN IN-OUT MINUS CHANGE IN STORAGE
 DIVIDED BY THE AVERAGE OF IN AND OUT TIMES 100

 PERCENT DISCREPANCY =           0.00     PERCENT DISCREPANCY =           0.00






1
  VOLUMETRIC BUDGET FOR ENTIRE MODEL AT END OF TIME STEP   15, STRESS PERIOD   8
  ------------------------------------------------------------------------------

     CUMULATIVE VOLUMES      L**3       RATES FOR THIS TIME STEP      L**3/T
     ------------------                 ------------------------

           IN:                                      IN:
           ---                                      ---
             STORAGE     =     9907630.0000               STORAGE     =           0.4385
       CONSTANT HEAD     =           0.0000         CONSTANT HEAD     =           0.0000
     HEAD DEP BOUNDS     =     4910124.5000       HEAD DEP BOUNDS     =           0.2859
      STREAM LEAKAGE     =   204751840.0000        STREAM LEAKAGE     =          12.2579
        UZF RECHARGE     =       73223.9531          UZF RECHARGE     =           0.0000
               GW ET     =           0.0000                 GW ET     =           0.0000
     SURFACE LEAKAGE     =           0.0000       SURFACE LEAKAGE     =           0.0000

                TOTAL IN =   219642816.0000                  TOTAL IN =          12.9823

          OUT:                                     OUT:
          ----                                     ----
             STORAGE     =    23794486.0000               STORAGE     =           1.5999
       CONSTANT HEAD     =           0.0000         CONSTANT HEAD     =           0.0000
     HEAD DEP BOUNDS     =     4930293.5000       HEAD DEP BOUNDS     =           0.2869
      STREAM LEAKAGE     =   190921888.0000        STREAM LEAKAGE     =          11.0958
        UZF RECHARGE     =           0.0000          UZF RECHARGE     =           0.0000
               GW ET     =           0.0000                 GW ET     =           0.0000
     SURFACE LEAKAGE     =           0.0000       SURFACE LEAKAGE     =           0.0000

               TOTAL OUT =   219646672.0000                 TOTAL OUT =          12.9826

                IN - OUT =       -3856.0000                  IN - OUT =      -3.2902E-04

     PERCENT DISCREPANCY =          -0.00         PERCENT DISCREPANCY =          -0.00






         TIME SUMMARY AT END OF TIME STEP   15 IN STRESS PERIOD    8
                    SECONDS     MINUTES      HOURS       DAYS        YEARS
                    -----------------------------------------------------------
   TIME STEP LENGTH  87667.      1461.1      24.352      1.0147     2.77799E-03
 STRESS PERIOD TIME 1.31500E+06  21917.      365.28      15.220     4.16698E-02
         TOTAL TIME 1.71814E+07 2.86357E+05  4772.6      198.86     0.54445    
1
 
 SOLVING FOR HEAD 
                                                   Max.-Head-Change                         Max.-Flux-Residual
  Residual-Control   Outer-Iter.   Inner-Iter.     Column Row Layer    Maximum-Head-Change  Column Row Layer    Maximum-Flux-Residual          L2-NORM 
          0                 1           2             1    1     1       0.4183862011E-02       1    1    1         0.2172102149E+00      0.4190484477E+00
          0                 2           2             1    1     1      -0.4069762470E-03       1    1    1        -0.2172105852E-01      0.4190484059E-01
          0                 3           1             1    1     1       0.2771356821E-04       1    1    1         0.1520474394E-02      0.2933333491E-02

    ------------------------------------------------
       NWT REQUIRED            3 OUTER ITERATIONS 
       AND A TOTAL OF          5 INNER ITERATIONS.
    ------------------------------------------------

 NO OUTPUT CONTROL FOR STRESS PERIOD    8   TIME STEP   16
 
 SOLVING FOR HEAD 
                                                   Max.-Head-Change                         Max.-Flux-Residual
  Residual-Control   Outer-Iter.   Inner-Iter.     Column Row Layer    Maximum-Head-Change  Column Row Layer    Maximum-Flux-Residual          L2-NORM 
          0                 1           2             1    1     1       0.4179165294E-02       1    1    1         0.2169658657E+00      0.4185390571E+00
          0                 2           2             1    1     1      -0.4065193820E-03       1    1    1        -0.2169662344E-01      0.4185390395E-01
          0                 3           1             1    1     1       0.2768245728E-04       1    1    1         0.1518763948E-02      0.2929773921E-02

    ------------------------------------------------
       NWT REQUIRED            3 OUTER ITERATIONS 
       AND A TOTAL OF          5 INNER ITERATIONS.
    ------------------------------------------------

 NO OUTPUT CONTROL FOR STRESS PERIOD    8   TIME STEP   17
 
 SOLVING FOR HEAD 
                                                   Max.-Head-Change                         Max.-Flux-Residual
  Residual-Control   Outer-Iter.   Inner-Iter.     Column Row Layer    Maximum-Head-Change  Column Row Layer    Maximum-Flux-Residual          L2-NORM 
          0                 1           2             1    1     1       0.4174506720E-02       1    1    1         0.2167234994E+00      0.4180327319E+00
          0                 2           2             1    1     1      -0.4060662274E-03       1    1    1        -0.2167238665E-01      0.4180327369E-01
          0                 3           1             1    1     1       0.2765159934E-04       1    1    1         0.1517067375E-02      0.2926229888E-02

    ------------------------------------------------
       NWT REQUIRED            3 OUTER ITERATIONS 
       AND A TOTAL OF          5 INNER ITERATIONS.
    ------------------------------------------------

 NO OUTPUT CONTROL FOR STRESS PERIOD    8   TIME STEP   18
 
 SOLVING FOR HEAD 
                                                   Max.-Head-Change                         Max.-Flux-Residual
  Residual-Control   Outer-Iter.   Inner-Iter.     Column Row Layer    Maximum-Head-Change  Column Row Layer    Maximum-Flux-Residual          L2-NORM 
          0                 1           2             1    1     1       0.4169841880E-02       1    1    1         0.2164808094E+00      0.4175331780E+00
          0                 2           2             1    1     1      -0.4056124636E-03       1    1    1        -0.2164811750E-01      0.4175332228E-01
          0                 3           1             1    1     1       0.2762069975E-04       1    1    1         0.1515368529E-02      0.2922737844E-02

    ------------------------------------------------
       NWT REQUIRED            3 OUTER ITERATIONS 
       AND A TOTAL OF          5 INNER ITERATIONS.
    ------------------------------------------------

 NO OUTPUT CONTROL FOR STRESS PERIOD    8   TIME STEP   19
 
 SOLVING FOR HEAD 
                                                   Max.-Head-Change                         Max.-Flux-Residual
  Residual-Control   Outer-Iter.   Inner-Iter.     Column Row Layer    Maximum-Head-Change  Column Row Layer    Maximum-Flux-Residual          L2-NORM 
          0                 1           2             1    1     1       0.4165192907E-02       1    1    1         0.2162389452E+00      0.4170300712E+00
          0                 2           2             1    1     1      -0.4051602423E-03       1    1    1        -0.2162393090E-01      0.4170301245E-01
          0                 3           1             1    1     1       0.2758990501E-04       1    1    1         0.1513675464E-02      0.2919213048E-02

    ------------------------------------------------
       NWT REQUIRED            3 OUTER ITERATIONS 
       AND A TOTAL OF          5 INNER ITERATIONS.
    ------------------------------------------------

 NO OUTPUT CONTROL FOR STRESS PERIOD    8   TIME STEP   20
 
 SOLVING FOR HEAD 
                                                   Max.-Head-Change                         Max.-Flux-Residual
  Residual-Control   Outer-Iter.   Inner-Iter.     Column Row Layer    Maximum-Head-Change  Column Row Layer    Maximum-Flux-Residual          L2-NORM 
          0                 1           2             1    1     1       0.4160559740E-02       1    1    1         0.2159979037E+00      0.4165321537E+00
          0                 2           2             1    1     1      -0.4047095593E-03       1    1    1        -0.2159982659E-01      0.4165321119E-01
          0                 3           1             1    1     1       0.2755921511E-04       1    1    1         0.1511988169E-02      0.2915718969E-02

    ------------------------------------------------
       NWT REQUIRED            3 OUTER ITERATIONS 
       AND A TOTAL OF          5 INNER ITERATIONS.
    ------------------------------------------------

 NO OUTPUT CONTROL FOR STRESS PERIOD    8   TIME STEP   21
 
 SOLVING FOR HEAD 
                                                   Max.-Head-Change                         Max.-Flux-Residual
  Residual-Control   Outer-Iter.   Inner-Iter.     Column Row Layer    Maximum-Head-Change  Column Row Layer    Maximum-Flux-Residual          L2-NORM 
          0                 1           2             1    1     1       0.4155942360E-02       1    1    1         0.2157576816E+00      0.4160402936E+00
          0                 2           2             1    1     1      -0.4042604115E-03       1    1    1        -0.2157580423E-01      0.4160402642E-01
          0                 3           1             1    1     1       0.2752862959E-04       1    1    1         0.1510306591E-02      0.2912278407E-02

    ------------------------------------------------
       NWT REQUIRED            3 OUTER ITERATIONS 
       AND A TOTAL OF          5 INNER ITERATIONS.
    ------------------------------------------------

 NO OUTPUT CONTROL FOR STRESS PERIOD    8   TIME STEP   22
 
 SOLVING FOR HEAD 
                                                   Max.-Head-Change                         Max.-Flux-Residual
  Residual-Control   Outer-Iter.   Inner-Iter.     Column Row Layer    Maximum-Head-Change  Column Row Layer    Maximum-Flux-Residual          L2-NORM 
          0                 1           2             1    1     1       0.4151340667E-02       1    1    1         0.2155182782E+00      0.4155465264E+00
          0                 2           2             1    1     1      -0.4038127903E-03       1    1    1        -0.2155186373E-01      0.4155465132E-01
          0                 3           1             1    1     1       0.2749814868E-04       1    1    1         0.1508630778E-02      0.2908822700E-02

    ------------------------------------------------
       NWT REQUIRED            3 OUTER ITERATIONS 
       AND A TOTAL OF          5 INNER ITERATIONS.
    ------------------------------------------------

 NO OUTPUT CONTROL FOR STRESS PERIOD    8   TIME STEP   23
 
 SOLVING FOR HEAD 
                                                   Max.-Head-Change                         Max.-Flux-Residual
  Residual-Control   Outer-Iter.   Inner-Iter.     Column Row Layer    Maximum-Head-Change  Column Row Layer    Maximum-Flux-Residual          L2-NORM 
          0                 1           2             1    1     1       0.4146754601E-02       1    1    1         0.2152796881E+00      0.4150571642E+00
          0                 2           2             1    1     1      -0.4033666884E-03       1    1    1        -0.2152800456E-01      0.4150571241E-01
          0                 3           1             1    1     1       0.2746777072E-04       1    1    1         0.1506960631E-02      0.2905396528E-02

    ------------------------------------------------
       NWT REQUIRED            3 OUTER ITERATIONS 
       AND A TOTAL OF          5 INNER ITERATIONS.
    ------------------------------------------------

 NO OUTPUT CONTROL FOR STRESS PERIOD    8   TIME STEP   24
 
 SOLVING FOR HEAD 
                                                   Max.-Head-Change                         Max.-Flux-Residual
  Residual-Control   Outer-Iter.   Inner-Iter.     Column Row Layer    Maximum-Head-Change  Column Row Layer    Maximum-Flux-Residual          L2-NORM 
          0                 1           2             1    1     1       0.4142184120E-02       1    1    1         0.2150419082E+00      0.4145700727E+00
          0                 2           2             1    1     1      -0.4029221030E-03       1    1    1        -0.2150422642E-01      0.4145700919E-01
          0                 3           1             1    1     1       0.2743749618E-04       1    1    1         0.1505296165E-02      0.2901993382E-02

    ------------------------------------------------
       NWT REQUIRED            3 OUTER ITERATIONS 
       AND A TOTAL OF          5 INNER ITERATIONS.
    ------------------------------------------------

 NO OUTPUT CONTROL FOR STRESS PERIOD    8   TIME STEP   25
 
 SOLVING FOR HEAD 
                                                   Max.-Head-Change                         Max.-Flux-Residual
  Residual-Control   Outer-Iter.   Inner-Iter.     Column Row Layer    Maximum-Head-Change  Column Row Layer    Maximum-Flux-Residual          L2-NORM 
          0                 1           2             1    1     1       0.4137606996E-02       1    1    1         0.2148037846E+00      0.4140906262E+00
          0                 2           2             1    1     1      -0.4024768714E-03       1    1    1        -0.2148041392E-01      0.4140906112E-01
          0                 3           1             1    1     1       0.2740717762E-04       1    1    1         0.1503629286E-02      0.2898632143E-02

    ------------------------------------------------
       NWT REQUIRED            3 OUTER ITERATIONS 
       AND A TOTAL OF          5 INNER ITERATIONS.
    ------------------------------------------------

 NO OUTPUT CONTROL FOR STRESS PERIOD    8   TIME STEP   26
 
 SOLVING FOR HEAD 
                                                   Max.-Head-Change                         Max.-Flux-Residual
  Residual-Control   Outer-Iter.   Inner-Iter.     Column Row Layer    Maximum-Head-Change  Column Row Layer    Maximum-Flux-Residual          L2-NORM 
          0                 1           2             1    1     1       0.4133067536E-02       1    1    1         0.2145676201E+00      0.4136068568E+00
          0                 2           2             1    1     1      -0.4020353038E-03       1    1    1        -0.2145679733E-01      0.4136068700E-01
          0                 3           1             1    1     1       0.2737710852E-04       1    1    1         0.1501976134E-02      0.2895256757E-02

    ------------------------------------------------
       NWT REQUIRED            3 OUTER ITERATIONS 
       AND A TOTAL OF          5 INNER ITERATIONS.
    ------------------------------------------------

 NO OUTPUT CONTROL FOR STRESS PERIOD    8   TIME STEP   27
 
 SOLVING FOR HEAD 
                                                   Max.-Head-Change                         Max.-Flux-Residual
  Residual-Control   Outer-Iter.   Inner-Iter.     Column Row Layer    Maximum-Head-Change  Column Row Layer    Maximum-Flux-Residual          L2-NORM 
          0                 1           2             1    1     1       0.4128543508E-02       1    1    1         0.2143322567E+00      0.4131270189E+00
          0                 2           2             1    1     1      -0.4015952362E-03       1    1    1        -0.2143326081E-01      0.4131270351E-01
          0                 3           1             1    1     1       0.2734714119E-04       1    1    1         0.1500328570E-02      0.2891890772E-02

    ------------------------------------------------
       NWT REQUIRED            3 OUTER ITERATIONS 
       AND A TOTAL OF          5 INNER ITERATIONS.
    ------------------------------------------------

 NO OUTPUT CONTROL FOR STRESS PERIOD    8   TIME STEP   28
 
 SOLVING FOR HEAD 
                                                   Max.-Head-Change                         Max.-Flux-Residual
  Residual-Control   Outer-Iter.   Inner-Iter.     Column Row Layer    Maximum-Head-Change  Column Row Layer    Maximum-Flux-Residual          L2-NORM 
          0                 1           2             1    1     1       0.4124034814E-02       1    1    1         0.2140976935E+00      0.4126517120E+00
          0                 2           2             1    1     1      -0.4011566608E-03       1    1    1        -0.2140980433E-01      0.4126517215E-01
          0                 3           1             1    1     1       0.2731727610E-04       1    1    1         0.1498686617E-02      0.2888579850E-02

    ------------------------------------------------
       NWT REQUIRED            3 OUTER ITERATIONS 
       AND A TOTAL OF          5 INNER ITERATIONS.
    ------------------------------------------------

 NO OUTPUT CONTROL FOR STRESS PERIOD    8   TIME STEP   29
 
 SOLVING FOR HEAD 
                                                   Max.-Head-Change                         Max.-Flux-Residual
  Residual-Control   Outer-Iter.   Inner-Iter.     Column Row Layer    Maximum-Head-Change  Column Row Layer    Maximum-Flux-Residual          L2-NORM 
          0                 1           2             1    1     1       0.4119519251E-02       1    1    1         0.2138627730E+00      0.4121782511E+00
          0                 2           2             1    1     1      -0.4007174176E-03       1    1    1        -0.2138631214E-01      0.4121782353E-01
          0                 3           1             1    1     1       0.2728736509E-04       1    1    1         0.1497042159E-02      0.2885248548E-02

    ------------------------------------------------
       NWT REQUIRED            3 OUTER ITERATIONS 
       AND A TOTAL OF          5 INNER ITERATIONS.
    ------------------------------------------------

 NO OUTPUT CONTROL FOR STRESS PERIOD    8   TIME STEP   30



 STREAM LISTING     PERIOD      8   STEP       30

 LAYER ROW COL. STREAM  RCH.  FLOW INTO     FLOW TO   FLOW OUT OF   OVRLND.     DIRECT     STREAM       STREAM     STREAM     STREAM   STREAMBED  STREAMBED
                SEG.NO.  NO.  STRM. RCH.    AQUIFER    STRM. RCH.    RUNOFF     PRECIP       ET          HEAD       DEPTH      WIDTH   CONDCTNC.   GRADIENT

   1    1    1     1     1    5.6250E+01  3.5874E-01   5.5891E+01  0.000E+00  0.000E+00  0.000E+00  1.09453E+03  1.479E+00  1.780E+01  8.010E-02  1.493E+00
   1    2    2     1     2    5.5891E+01  5.5550E-01   5.5335E+01  0.000E+00  0.000E+00  0.000E+00  1.08953E+03  1.473E+00  1.774E+01  1.242E-01  1.491E+00
   1    3    3     1     3    5.5335E+01  4.7368E-01   5.4862E+01  0.000E+00  0.000E+00  0.000E+00  1.08389E+03  1.467E+00  1.767E+01  1.060E-01  1.489E+00
   1    3    4     1     4    5.4862E+01  4.3613E-01   5.4426E+01  0.000E+00  0.000E+00  0.000E+00  1.07887E+03  1.461E+00  1.762E+01  9.777E-02  1.487E+00
   1    4    5     2     1    5.2426E+01  3.8056E-01   5.2045E+01  0.000E+00  0.000E+00  0.000E+00  1.07381E+03  1.879E+00  1.200E+01  7.800E-02  1.626E+00
   1    5    6     2     2    5.2045E+01  2.9230E-01   5.1753E+01  0.000E+00  0.000E+00  0.000E+00  1.06838E+03  1.872E+00  1.200E+01  6.000E-02  1.624E+00
   1    6    6     2     3    5.1753E+01  2.9192E-01   5.1461E+01  0.000E+00  0.000E+00  0.000E+00  1.06366E+03  1.865E+00  1.200E+01  6.000E-02  1.622E+00
   1    7    6     2     4    5.1461E+01  2.9154E-01   5.1169E+01  0.000E+00  0.000E+00  0.000E+00  1.05893E+03  1.859E+00  1.200E+01  6.000E-02  1.620E+00
   1    8    6     2     5    5.1169E+01  2.9116E-01   5.0878E+01  0.000E+00  0.000E+00  0.000E+00  1.05421E+03  1.853E+00  1.200E+01  6.000E-02  1.618E+00
   1    3    5     3     1    2.0000E+00  2.8252E-01   1.7175E+00  0.000E+00  0.000E+00  0.000E+00  1.07555E+03  1.909E+00  9.636E+00  7.227E-02  1.955E+00
   1    3    6     3     2    1.7175E+00  2.4905E-01   1.4684E+00  0.000E+00  0.000E+00  0.000E+00  1.07264E+03  1.727E+00  8.909E+00  6.682E-02  1.864E+00
   1    3    7     3     3    1.4684E+00  1.9718E-01   1.2712E+00  0.000E+00  0.000E+00  0.000E+00  1.06987E+03  1.555E+00  8.218E+00  5.547E-02  1.777E+00
   1    4    8     3     4    1.2712E+00  2.2567E-01   1.0456E+00  0.000E+00  0.000E+00  0.000E+00  1.06682E+03  1.364E+00  7.455E+00  6.709E-02  1.682E+00
   1    5    8     3     5    1.0456E+00  1.5790E-01   8.8768E-01  0.000E+00  0.000E+00  0.000E+00  1.06362E+03  1.164E+00  6.655E+00  4.991E-02  1.582E+00
   1    6    8     3     6    8.8768E-01  5.5980E-02   8.3170E-01  0.000E+00  0.000E+00  0.000E+00  1.06158E+03  1.036E+00  6.145E+00  1.844E-02  1.518E+00
   1    5   10     4     1    1.0000E+01  9.0919E-02   9.9091E+00  0.000E+00  0.000E+00  0.000E+00  1.07836E+03  6.368E-01  1.000E+01  2.500E-02  1.212E+00
   1    5    9     4     2    9.9091E+00  1.8158E-01   9.7275E+00  0.000E+00  0.000E+00  0.000E+00  1.07154E+03  6.315E-01  1.000E+01  5.000E-02  1.211E+00
   1    6    8     4     3    9.7275E+00  1.2689E-01   9.6006E+00  0.000E+00  0.000E+00  0.000E+00  1.06381E+03  6.256E-01  1.000E+01  3.500E-02  1.209E+00
   1    6    8     5     1    1.0432E+01  2.2686E-01   1.0205E+01  0.000E+00  0.000E+00  0.000E+00  1.05868E+03  6.790E-01  1.542E+01  6.166E-02  1.226E+00
   1    7    7     5     2    1.0205E+01  2.7894E-01   9.9265E+00  0.000E+00  0.000E+00  0.000E+00  1.05417E+03  6.732E-01  1.519E+01  7.594E-02  1.224E+00
   1    8    7     5     3    9.9265E+00  1.9221E-01   9.7343E+00  0.000E+00  0.000E+00  0.000E+00  1.04992E+03  6.676E-01  1.497E+01  5.241E-02  1.223E+00
   1    8    6     5     4    9.7343E+00  1.3577E-01   9.5985E+00  0.000E+00  0.000E+00  0.000E+00  1.04691E+03  6.637E-01  1.482E+01  3.706E-02  1.221E+00
   1    9    6     6     1    9.5985E+00  2.2097E-01   9.3776E+00  0.000E+00  0.000E+00  0.000E+00  1.04341E+03  6.828E-01  1.200E+01  6.000E-02  1.228E+00
   1   10    7     6     2    9.3776E+00  2.2039E-01   9.1572E+00  0.000E+00  0.000E+00  0.000E+00  1.03885E+03  6.732E-01  1.200E+01  6.000E-02  1.224E+00
   1   11    7     6     3    9.1572E+00  2.1981E-01   8.9374E+00  0.000E+00  0.000E+00  0.000E+00  1.03430E+03  6.636E-01  1.200E+01  6.000E-02  1.221E+00
   1   12    7     6     4    8.9374E+00  2.1923E-01   8.7181E+00  0.000E+00  0.000E+00  0.000E+00  1.02974E+03  6.539E-01  1.200E+01  6.000E-02  1.218E+00
   1   13    7     6     5    8.7181E+00 -1.1328E-01   8.8314E+00  0.000E+00  0.000E+00  0.000E+00  1.02656E+03  6.515E-01  1.200E+01  2.400E-01 -1.573E-01
   1   14    9     7     1    1.5000E+02  1.3382E+00   1.4866E+02  0.000E+00  0.000E+00  0.000E+00  1.03987E+03  2.288E+00  5.529E+01  5.593E-01  7.976E-01
   1   13    8     7     2    1.4866E+02  1.8420E+00   1.4682E+02  0.000E+00  0.000E+00  0.000E+00  1.03478E+03  2.279E+00  5.526E+01  6.148E-01  9.987E-01
   1   13    7     7     3    1.4682E+02  1.4839E+00   1.4534E+02  0.000E+00  0.000E+00  0.000E+00  1.02969E+03  2.270E+00  5.522E+01  5.584E-01  8.857E-01
   1   13    6     8     1    1.5417E+02  8.3553E-01   1.5333E+02  0.000E+00  0.000E+00  0.000E+00  1.02472E+03  2.843E+00  4.122E+01  4.201E-01  6.630E-01
   1   13    5     8     2    1.5333E+02  1.0639E-01   1.5323E+02  0.000E+00  0.000E+00  0.000E+00  1.01846E+03  2.840E+00  4.118E+01  4.196E-01  8.452E-02
   1   13    4     8     3    1.5323E+02 -2.6586E+00   1.5588E+02  0.000E+00  0.000E+00  0.000E+00  1.01222E+03  2.849E+00  4.130E+01  4.209E+00 -2.105E-01
   1   13    3     8     4    1.5588E+02 -3.7416E+00   1.5963E+02  0.000E+00  0.000E+00  0.000E+00  1.00600E+03  2.871E+00  4.162E+01  4.242E+00 -2.940E-01
   1   13    2     8     5    1.5963E+02 -2.5994E+00   1.6222E+02  0.000E+00  0.000E+00  0.000E+00  9.99767E+02  2.892E+00  4.194E+01  4.273E+00 -2.028E-01
   1   13    1     8     6    1.6222E+02 -1.9810E+00   1.6421E+02  0.000E+00  0.000E+00  0.000E+00  9.94782E+02  2.907E+00  4.216E+01  2.578E+00 -2.562E-01
   1    8    6     9     1    5.0878E+01  0.0000E+00   5.0878E+01  0.000E+00  0.000E+00  0.000E+00  1.08476E+03  6.014E+00  4.000E+00  0.000E+00  3.005E+00
   1    8    5     9     2    5.0878E+01  0.0000E+00   5.0878E+01  0.000E+00  0.000E+00  0.000E+00  1.08426E+03  6.014E+00  4.000E+00  0.000E+00  3.005E+00





UNSATURATED ZONE PACKAGE VOLUMETRIC BUDGET FOR  TIME STEP    30 STRESS PERIOD    8
  ------------------------------------------------------------------------------



     CUMULATIVE VOLUMES      L**3       RATES FOR THIS TIME STEP      L**3/T
     ------------------                 ------------------------

           IN:                                      IN:
           ---                                      ---
        INFILTRATION =    15675698.1092          INFILTRATION =           0.8475

          OUT:                                     OUT:
          ----                                     ----
              UZF ET =    15518664.5188                UZF ET =           0.8475
        UZF RECHARGE =       73224.0000          UZF RECHARGE =       0.0000E+00

            IN - OUT =       83809.5904              IN - OUT =       0.0000E+00

          STORAGE:                                 STORAGE:
          --------                                 --------
      STORAGE CHANGE =       83809.6438        STORAGE CHANGE =       2.0749E-17

 PERCENT DISCREPANCY IS DIFFERENCE BETWEEN IN-OUT MINUS CHANGE IN STORAGE
 DIVIDED BY THE AVERAGE OF IN AND OUT TIMES 100

 PERCENT DISCREPANCY =           0.00     PERCENT DISCREPANCY =           0.00






1
  VOLUMETRIC BUDGET FOR ENTIRE MODEL AT END OF TIME STEP   30, STRESS PERIOD   8
  ------------------------------------------------------------------------------

     CUMULATIVE VOLUMES      L**3       RATES FOR THIS TIME STEP      L**3/T
     ------------------                 ------------------------

           IN:                                      IN:
           ---                                      ---
             STORAGE     =    10472802.0000               STORAGE     =           0.4224
       CONSTANT HEAD     =           0.0000         CONSTANT HEAD     =           0.0000
     HEAD DEP BOUNDS     =     5286104.0000       HEAD DEP BOUNDS     =           0.2859
      STREAM LEAKAGE     =   220872080.0000        STREAM LEAKAGE     =          12.2594
        UZF RECHARGE     =       73223.9531          UZF RECHARGE     =           0.0000
               GW ET     =           0.0000                 GW ET     =           0.0000
     SURFACE LEAKAGE     =           0.0000       SURFACE LEAKAGE     =           0.0000

                TOTAL IN =   236704208.0000                  TOTAL IN =          12.9677

          OUT:                                     OUT:
          ----                                     ----
             STORAGE     =    25889450.0000               STORAGE     =           1.5874
       CONSTANT HEAD     =           0.0000         CONSTANT HEAD     =           0.0000
     HEAD DEP BOUNDS     =     5307618.5000       HEAD DEP BOUNDS     =           0.2869
      STREAM LEAKAGE     =   205511424.0000        STREAM LEAKAGE     =          11.0938
        UZF RECHARGE     =           0.0000          UZF RECHARGE     =           0.0000
               GW ET     =           0.0000                 GW ET     =           0.0000
     SURFACE LEAKAGE     =           0.0000       SURFACE LEAKAGE     =           0.0000

               TOTAL OUT =   236708496.0000                 TOTAL OUT =          12.9681

                IN - OUT =       -4288.0000                  IN - OUT =      -3.2902E-04

     PERCENT DISCREPANCY =          -0.00         PERCENT DISCREPANCY =          -0.00






         TIME SUMMARY AT END OF TIME STEP   30 IN STRESS PERIOD    8
                    SECONDS     MINUTES      HOURS       DAYS        YEARS
                    -----------------------------------------------------------
   TIME STEP LENGTH  87667.      1461.1      24.352      1.0147     2.77799E-03
 STRESS PERIOD TIME 2.63000E+06  43833.      730.56      30.440     8.33397E-02
         TOTAL TIME 1.84964E+07 3.08274E+05  5137.9      214.08     0.58612    
1
1
                            STRESS PERIOD NO.    9, LENGTH =   2630000.    
                            -----------------------------------------------

                              NUMBER OF TIME STEPS =    30

                               MULTIPLIER FOR DELT =     1.000

                            INITIAL TIME STEP SIZE =   87666.66    

 REUSING NON-PARAMETER GHB CELLS FROM LAST STRESS PERIOD

      2 GHB CELLS

 REUSING STREAM SEGMENT DATA FROM LAST STRESS PERIOD



            AREAL INFILTRATION RATE
 READING ON UNIT   19 WITH FORMAT: (FREE)              

            1           2           3           4           5           6           7           8           9          10
 ........................................................................................................................
   1   1.0000E-10  2.0000E-10   0.000       0.000       0.000       0.000       0.000       0.000       0.000       0.000    
   2   2.0000E-10  1.0000E-10  2.0000E-10   0.000       0.000      8.0000E-10  8.0000E-10  5.0000E-10   0.000       0.000    
   3    0.000      5.0000E-10  1.0000E-10  1.0000E-10  8.0000E-10  8.0000E-10  5.0000E-10  5.0000E-10   0.000       0.000    
   4   8.0000E-10  5.0000E-10  1.0000E-10  1.0000E-10  1.0000E-10  1.0000E-10  1.0000E-10  1.0000E-10  2.0000E-10   0.000    
   5   8.0000E-10  5.0000E-10  1.0000E-10  1.0000E-10  1.0000E-10  1.0000E-10  1.0000E-10  1.0000E-10  1.0000E-10  1.0000E-10
   6   8.0000E-10  5.0000E-10  5.0000E-10  2.0000E-10  2.0000E-10  1.0000E-10  1.0000E-10  1.0000E-10  1.0000E-10  5.0000E-10
   7   8.0000E-10  5.0000E-10  5.0000E-10  2.0000E-10  2.0000E-10  1.0000E-10  1.0000E-10  2.0000E-10  2.0000E-10   0.000    
   8    0.000      5.0000E-10  5.0000E-10  2.0000E-10  2.0000E-10  1.0000E-10  1.0000E-10  2.0000E-10  5.0000E-10   0.000    
   9    0.000      5.0000E-10  5.0000E-10  2.0000E-10  2.0000E-10  1.0000E-10  1.0000E-10  2.0000E-10  5.0000E-10   0.000    
  10    0.000      5.0000E-10  5.0000E-10  2.0000E-10  2.0000E-10  1.0000E-10  1.0000E-10  2.0000E-10  5.0000E-10  8.0000E-10
  11    0.000      1.0000E-10  1.0000E-10  1.0000E-10  1.0000E-10  1.0000E-10  1.0000E-10  2.0000E-10  5.0000E-10   0.000    
  12   1.0000E-10  1.0000E-10  1.0000E-10  1.0000E-10  1.0000E-10  1.0000E-10  1.0000E-10  1.0000E-10  2.0000E-10   0.000    
  13   1.0000E-10  1.0000E-10  2.0000E-10  2.0000E-10  2.0000E-10  2.0000E-10  2.0000E-10  1.0000E-10  1.0000E-10   0.000    
  14    0.000      2.0000E-10  5.0000E-10  5.0000E-10  5.0000E-10  5.0000E-10  5.0000E-10  2.0000E-10  1.0000E-10   0.000    
  15    0.000       0.000      8.0000E-10  8.0000E-10  8.0000E-10  8.0000E-10   0.000       0.000       0.000       0.000    

                  ET RATE =  3.250000E-07

 USING ET EXTINCTION DEPTH FROM PREVIOUS STRESS PERIOD. CURRENT PERIOD IS:       9

 USING EXTINCTION WATER CONTENT FROM PREVIOUS STRESS PERIOD. CURRENT PERIOD IS:       9

 USING AIR ENTRY PRESSURE FROM PREVIOUS STRESS PERIOD. CURRENT PERIOD IS:       9

 USING ROOT PRESSURE HEAD FROM PREVIOUS STRESS PERIOD. CURRENT PERIOD IS:       9

 USING ROOT ACTIVITY FROM PREVIOUS STRESS PERIOD. CURRENT PERIOD IS:       9
 
 SOLVING FOR HEAD 
                                                   Max.-Head-Change                         Max.-Flux-Residual
  Residual-Control   Outer-Iter.   Inner-Iter.     Column Row Layer    Maximum-Head-Change  Column Row Layer    Maximum-Flux-Residual          L2-NORM 
          0                 1           2             1    1     1       0.3451010927E-02       1    1    1         0.1791388064E+00      0.3471131241E+00
          0                 2           2             1    1     1      -0.3356895972E-03       1    1    1        -0.1791390300E-01      0.3471130650E-01
          0                 3           1             1    1     1       0.2285921433E-04       1    1    1         0.1253973559E-02      0.2429788268E-02

    ------------------------------------------------
       NWT REQUIRED            3 OUTER ITERATIONS 
       AND A TOTAL OF          5 INNER ITERATIONS.
    ------------------------------------------------

 NO OUTPUT CONTROL FOR STRESS PERIOD    9   TIME STEP    1
 
 SOLVING FOR HEAD 
                                                   Max.-Head-Change                         Max.-Flux-Residual
  Residual-Control   Outer-Iter.   Inner-Iter.     Column Row Layer    Maximum-Head-Change  Column Row Layer    Maximum-Flux-Residual          L2-NORM 
          0                 1           2             1    1     1       0.3421374406E-02       1    1    1         0.1775991801E+00      0.3442746756E+00
          0                 2           2             1    1     1      -0.3328067634E-03       1    1    1        -0.1775993983E-01      0.3442745479E-01
          0                 3           1             1    1     1       0.2266290379E-04       1    1    1         0.1243196128E-02      0.2409953130E-02

    ------------------------------------------------
       NWT REQUIRED            3 OUTER ITERATIONS 
       AND A TOTAL OF          5 INNER ITERATIONS.
    ------------------------------------------------

 NO OUTPUT CONTROL FOR STRESS PERIOD    9   TIME STEP    2
 
 SOLVING FOR HEAD 
                                                   Max.-Head-Change                         Max.-Flux-Residual
  Residual-Control   Outer-Iter.   Inner-Iter.     Column Row Layer    Maximum-Head-Change  Column Row Layer    Maximum-Flux-Residual          L2-NORM 
          0                 1           2             1    1     1       0.3418017997E-02       1    1    1         0.1774246011E+00      0.3437639592E+00
          0                 2           2             1    1     1      -0.3324802748E-03       1    1    1        -0.1774248185E-01      0.3437638408E-01
          0                 3           1             1    1     1       0.2264067047E-04       1    1    1         0.1241974041E-02      0.2406348103E-02

    ------------------------------------------------
       NWT REQUIRED            3 OUTER ITERATIONS 
       AND A TOTAL OF          5 INNER ITERATIONS.
    ------------------------------------------------

 NO OUTPUT CONTROL FOR STRESS PERIOD    9   TIME STEP    3
 
 SOLVING FOR HEAD 
                                                   Max.-Head-Change                         Max.-Flux-Residual
  Residual-Control   Outer-Iter.   Inner-Iter.     Column Row Layer    Maximum-Head-Change  Column Row Layer    Maximum-Flux-Residual          L2-NORM 
          0                 1           2             1    1     1       0.3414694486E-02       1    1    1         0.1772517293E+00      0.3432762070E+00
          0                 2           2             1    1     1      -0.3321569869E-03       1    1    1        -0.1772519458E-01      0.3432760681E-01
          0                 3           1             1    1     1       0.2261865631E-04       1    1    1         0.1240763958E-02      0.2402929337E-02

    ------------------------------------------------
       NWT REQUIRED            3 OUTER ITERATIONS 
       AND A TOTAL OF          5 INNER ITERATIONS.
    ------------------------------------------------

 NO OUTPUT CONTROL FOR STRESS PERIOD    9   TIME STEP    4
 
 SOLVING FOR HEAD 
                                                   Max.-Head-Change                         Max.-Flux-Residual
  Residual-Control   Outer-Iter.   Inner-Iter.     Column Row Layer    Maximum-Head-Change  Column Row Layer    Maximum-Flux-Residual          L2-NORM 
          0                 1           2             1    1     1       0.3411359415E-02       1    1    1         0.1770782577E+00      0.3428016497E+00
          0                 2           2             1    1     1      -0.3318325740E-03       1    1    1        -0.1770784733E-01      0.3428015399E-01
          0                 3           1             1    1     1       0.2259656499E-04       1    1    1         0.1239549656E-02      0.2399609531E-02

    ------------------------------------------------
       NWT REQUIRED            3 OUTER ITERATIONS 
       AND A TOTAL OF          5 INNER ITERATIONS.
    ------------------------------------------------

 NO OUTPUT CONTROL FOR STRESS PERIOD    9   TIME STEP    5
 
 SOLVING FOR HEAD 
                                                   Max.-Head-Change                         Max.-Flux-Residual
  Residual-Control   Outer-Iter.   Inner-Iter.     Column Row Layer    Maximum-Head-Change  Column Row Layer    Maximum-Flux-Residual          L2-NORM 
          0                 1           2             1    1     1       0.3408057141E-02       1    1    1         0.1769064925E+00      0.3423411165E+00
          0                 2           2             1    1     1      -0.3315113513E-03       1    1    1        -0.1769067073E-01      0.3423410008E-01
          0                 3           1             1    1     1       0.2257469070E-04       1    1    1         0.1238347282E-02      0.2396387845E-02

    ------------------------------------------------
       NWT REQUIRED            3 OUTER ITERATIONS 
       AND A TOTAL OF          5 INNER ITERATIONS.
    ------------------------------------------------

 NO OUTPUT CONTROL FOR STRESS PERIOD    9   TIME STEP    6
 
 SOLVING FOR HEAD 
                                                   Max.-Head-Change                         Max.-Flux-Residual
  Residual-Control   Outer-Iter.   Inner-Iter.     Column Row Layer    Maximum-Head-Change  Column Row Layer    Maximum-Flux-Residual          L2-NORM 
          0                 1           2             1    1     1       0.3404743238E-02       1    1    1         0.1767341219E+00      0.3419005400E+00
          0                 2           2             1    1     1      -0.3311889979E-03       1    1    1        -0.1767343360E-01      0.3419004167E-01
          0                 3           1             1    1     1       0.2255273972E-04       1    1    1         0.1237140689E-02      0.2393304303E-02

    ------------------------------------------------
       NWT REQUIRED            3 OUTER ITERATIONS 
       AND A TOTAL OF          5 INNER ITERATIONS.
    ------------------------------------------------

 NO OUTPUT CONTROL FOR STRESS PERIOD    9   TIME STEP    7
 
 SOLVING FOR HEAD 
                                                   Max.-Head-Change                         Max.-Flux-Residual
  Residual-Control   Outer-Iter.   Inner-Iter.     Column Row Layer    Maximum-Head-Change  Column Row Layer    Maximum-Flux-Residual          L2-NORM 
          0                 1           2             1    1     1       0.3401439911E-02       1    1    1         0.1765623013E+00      0.3414649225E+00
          0                 2           2             1    1     1      -0.3308676726E-03       1    1    1        -0.1765625143E-01      0.3414647880E-01
          0                 3           1             1    1     1       0.2253085881E-04       1    1    1         0.1235937934E-02      0.2390249614E-02

    ------------------------------------------------
       NWT REQUIRED            3 OUTER ITERATIONS 
       AND A TOTAL OF          5 INNER ITERATIONS.
    ------------------------------------------------

 NO OUTPUT CONTROL FOR STRESS PERIOD    9   TIME STEP    8
 
 SOLVING FOR HEAD 
                                                   Max.-Head-Change                         Max.-Flux-Residual
  Residual-Control   Outer-Iter.   Inner-Iter.     Column Row Layer    Maximum-Head-Change  Column Row Layer    Maximum-Flux-Residual          L2-NORM 
          0                 1           2             1    1     1       0.3398169316E-02       1    1    1         0.1763921823E+00      0.3410419796E+00
          0                 2           2             1    1     1      -0.3305495315E-03       1    1    1        -0.1763923945E-01      0.3410417979E-01
          0                 3           1             1    1     1       0.2250919445E-04       1    1    1         0.1234747088E-02      0.2387292989E-02

    ------------------------------------------------
       NWT REQUIRED            3 OUTER ITERATIONS 
       AND A TOTAL OF          5 INNER ITERATIONS.
    ------------------------------------------------

 NO OUTPUT CONTROL FOR STRESS PERIOD    9   TIME STEP    9
 
 SOLVING FOR HEAD 
                                                   Max.-Head-Change                         Max.-Flux-Residual
  Residual-Control   Outer-Iter.   Inner-Iter.     Column Row Layer    Maximum-Head-Change  Column Row Layer    Maximum-Flux-Residual          L2-NORM 
          0                 1           2             1    1     1       0.3394886965E-02       1    1    1         0.1762214539E+00      0.3406349068E+00
          0                 2           2             1    1     1      -0.3302302476E-03       1    1    1        -0.1762216654E-01      0.3406348110E-01
          0                 3           1             1    1     1       0.2248745269E-04       1    1    1         0.1233552002E-02      0.2384442653E-02

    ------------------------------------------------
       NWT REQUIRED            3 OUTER ITERATIONS 
       AND A TOTAL OF          5 INNER ITERATIONS.
    ------------------------------------------------

 NO OUTPUT CONTROL FOR STRESS PERIOD    9   TIME STEP   10
 
 SOLVING FOR HEAD 
                                                   Max.-Head-Change                         Max.-Flux-Residual
  Residual-Control   Outer-Iter.   Inner-Iter.     Column Row Layer    Maximum-Head-Change  Column Row Layer    Maximum-Flux-Residual          L2-NORM 
          0                 1           2             1    1     1       0.3391615094E-02       1    1    1         0.1760512692E+00      0.3402363455E+00
          0                 2           2             1    1     1      -0.3299119819E-03       1    1    1        -0.1760514797E-01      0.3402362058E-01
          0                 3           1             1    1     1       0.2246577957E-04       1    1    1         0.1232360690E-02      0.2381651943E-02

    ------------------------------------------------
       NWT REQUIRED            3 OUTER ITERATIONS 
       AND A TOTAL OF          5 INNER ITERATIONS.
    ------------------------------------------------

 NO OUTPUT CONTROL FOR STRESS PERIOD    9   TIME STEP   11
 
 SOLVING FOR HEAD 
                                                   Max.-Head-Change                         Max.-Flux-Residual
  Residual-Control   Outer-Iter.   Inner-Iter.     Column Row Layer    Maximum-Head-Change  Column Row Layer    Maximum-Flux-Residual          L2-NORM 
          0                 1           2             1    1     1       0.3388375881E-02       1    1    1         0.1758827815E+00      0.3398417341E+00
          0                 2           2             1    1     1      -0.3295968936E-03       1    1    1        -0.1758829912E-01      0.3398415944E-01
          0                 3           1             1    1     1       0.2244432348E-04       1    1    1         0.1231181265E-02      0.2378892463E-02

    ------------------------------------------------
       NWT REQUIRED            3 OUTER ITERATIONS 
       AND A TOTAL OF          5 INNER ITERATIONS.
    ------------------------------------------------

 NO OUTPUT CONTROL FOR STRESS PERIOD    9   TIME STEP   12
 
 SOLVING FOR HEAD 
                                                   Max.-Head-Change                         Max.-Flux-Residual
  Residual-Control   Outer-Iter.   Inner-Iter.     Column Row Layer    Maximum-Head-Change  Column Row Layer    Maximum-Flux-Residual          L2-NORM 
          0                 1           2             1    1     1       0.3385124835E-02       1    1    1         0.1757136799E+00      0.3394548612E+00
          0                 2           2             1    1     1      -0.3292806545E-03       1    1    1        -0.1757138889E-01      0.3394547553E-01
          0                 3           1             1    1     1       0.2242278906E-04       1    1    1         0.1229997566E-02      0.2376182754E-02

    ------------------------------------------------
       NWT REQUIRED            3 OUTER ITERATIONS 
       AND A TOTAL OF          5 INNER ITERATIONS.
    ------------------------------------------------

 NO OUTPUT CONTROL FOR STRESS PERIOD    9   TIME STEP   13
 
 SOLVING FOR HEAD 
                                                   Max.-Head-Change                         Max.-Flux-Residual
  Residual-Control   Outer-Iter.   Inner-Iter.     Column Row Layer    Maximum-Head-Change  Column Row Layer    Maximum-Flux-Residual          L2-NORM 
          0                 1           2             1    1     1       0.3381884154E-02       1    1    1         0.1755451183E+00      0.3390788292E+00
          0                 2           2             1    1     1      -0.3289654229E-03       1    1    1        -0.1755453264E-01      0.3390786688E-01
          0                 3           1             1    1     1       0.2240132255E-04       1    1    1         0.1228817608E-02      0.2373554061E-02

    ------------------------------------------------
       NWT REQUIRED            3 OUTER ITERATIONS 
       AND A TOTAL OF          5 INNER ITERATIONS.
    ------------------------------------------------

 NO OUTPUT CONTROL FOR STRESS PERIOD    9   TIME STEP   14
 
 SOLVING FOR HEAD 
                                                   Max.-Head-Change                         Max.-Flux-Residual
  Residual-Control   Outer-Iter.   Inner-Iter.     Column Row Layer    Maximum-Head-Change  Column Row Layer    Maximum-Flux-Residual          L2-NORM 
          0                 1           2             1    1     1       0.3378653826E-02       1    1    1         0.1753770942E+00      0.3387025510E+00
          0                 2           2             1    1     1      -0.3286511992E-03       1    1    1        -0.1753773016E-01      0.3387024495E-01
          0                 3           1             1    1     1       0.2237992492E-04       1    1    1         0.1227641443E-02      0.2370919290E-02

    ------------------------------------------------
       NWT REQUIRED            3 OUTER ITERATIONS 
       AND A TOTAL OF          5 INNER ITERATIONS.
    ------------------------------------------------

 NO OUTPUT CONTROL FOR STRESS PERIOD    9   TIME STEP   15
 
 SOLVING FOR HEAD 
                                                   Max.-Head-Change                         Max.-Flux-Residual
  Residual-Control   Outer-Iter.   Inner-Iter.     Column Row Layer    Maximum-Head-Change  Column Row Layer    Maximum-Flux-Residual          L2-NORM 
          0                 1           2             1    1     1       0.3375433816E-02       1    1    1         0.1752096068E+00      0.3383429232E+00
          0                 2           2             1    1     1      -0.3283379787E-03       1    1    1        -0.1752098133E-01      0.3383427994E-01
          0                 3           1             1    1     1       0.2235859617E-04       1    1    1         0.1226469027E-02      0.2368396991E-02

    ------------------------------------------------
       NWT REQUIRED            3 OUTER ITERATIONS 
       AND A TOTAL OF          5 INNER ITERATIONS.
    ------------------------------------------------

 NO OUTPUT CONTROL FOR STRESS PERIOD    9   TIME STEP   16
 
 SOLVING FOR HEAD 
                                                   Max.-Head-Change                         Max.-Flux-Residual
  Residual-Control   Outer-Iter.   Inner-Iter.     Column Row Layer    Maximum-Head-Change  Column Row Layer    Maximum-Flux-Residual          L2-NORM 
          0                 1           2             1    1     1       0.3372246316E-02       1    1    1         0.1750438086E+00      0.3379780909E+00
          0                 2           2             1    1     1      -0.3280279208E-03       1    1    1        -0.1750440143E-01      0.3379779410E-01
          0                 3           1             1    1     1       0.2233748254E-04       1    1    1         0.1225308448E-02      0.2365846958E-02

    ------------------------------------------------
       NWT REQUIRED            3 OUTER ITERATIONS 
       AND A TOTAL OF          5 INNER ITERATIONS.
    ------------------------------------------------

 NO OUTPUT CONTROL FOR STRESS PERIOD    9   TIME STEP   17
 
 SOLVING FOR HEAD 
                                                   Max.-Head-Change                         Max.-Flux-Residual
  Residual-Control   Outer-Iter.   Inner-Iter.     Column Row Layer    Maximum-Head-Change  Column Row Layer    Maximum-Flux-Residual          L2-NORM 
          0                 1           2             1    1     1       0.3369046810E-02       1    1    1         0.1748773877E+00      0.3376291076E+00
          0                 2           2             1    1     1      -0.3277166947E-03       1    1    1        -0.1748775925E-01      0.3376289873E-01
          0                 3           1             1    1     1       0.2231628916E-04       1    1    1         0.1224143487E-02      0.2363402729E-02

    ------------------------------------------------
       NWT REQUIRED            3 OUTER ITERATIONS 
       AND A TOTAL OF          5 INNER ITERATIONS.
    ------------------------------------------------

 NO OUTPUT CONTROL FOR STRESS PERIOD    9   TIME STEP   18
 
 SOLVING FOR HEAD 
                                                   Max.-Head-Change                         Max.-Flux-Residual
  Residual-Control   Outer-Iter.   Inner-Iter.     Column Row Layer    Maximum-Head-Change  Column Row Layer    Maximum-Flux-Residual          L2-NORM 
          0                 1           2             1    1     1       0.3365857528E-02       1    1    1         0.1747114985E+00      0.3372724632E+00
          0                 2           2             1    1     1      -0.3274064632E-03       1    1    1        -0.1747117025E-01      0.3372723121E-01
          0                 3           1             1    1     1       0.2229516323E-04       1    1    1         0.1222982248E-02      0.2360903763E-02

    ------------------------------------------------
       NWT REQUIRED            3 OUTER ITERATIONS 
       AND A TOTAL OF          5 INNER ITERATIONS.
    ------------------------------------------------

 NO OUTPUT CONTROL FOR STRESS PERIOD    9   TIME STEP   19
 
 SOLVING FOR HEAD 
                                                   Max.-Head-Change                         Max.-Flux-Residual
  Residual-Control   Outer-Iter.   Inner-Iter.     Column Row Layer    Maximum-Head-Change  Column Row Layer    Maximum-Flux-Residual          L2-NORM 
          0                 1           2             1    1     1       0.3362678438E-02       1    1    1         0.1745461393E+00      0.3369285609E+00
          0                 2           2             1    1     1      -0.3270972238E-03       1    1    1        -0.1745463428E-01      0.3369284313E-01
          0                 3           1             1    1     1       0.2227410546E-04       1    1    1         0.1221824740E-02      0.2358501796E-02

    ------------------------------------------------
       NWT REQUIRED            3 OUTER ITERATIONS 
       AND A TOTAL OF          5 INNER ITERATIONS.
    ------------------------------------------------

 NO OUTPUT CONTROL FOR STRESS PERIOD    9   TIME STEP   20
 
 SOLVING FOR HEAD 
                                                   Max.-Head-Change                         Max.-Flux-Residual
  Residual-Control   Outer-Iter.   Inner-Iter.     Column Row Layer    Maximum-Head-Change  Column Row Layer    Maximum-Flux-Residual          L2-NORM 
          0                 1           2             1    1     1       0.3359509506E-02       1    1    1         0.1743813086E+00      0.3365832612E+00
          0                 2           2             1    1     1      -0.3267889717E-03       1    1    1        -0.1743815112E-01      0.3365832016E-01
          0                 3           1             1    1     1       0.2225311444E-04       1    1    1         0.1220670914E-02      0.2356083334E-02

    ------------------------------------------------
       NWT REQUIRED            3 OUTER ITERATIONS 
       AND A TOTAL OF          5 INNER ITERATIONS.
    ------------------------------------------------

 NO OUTPUT CONTROL FOR STRESS PERIOD    9   TIME STEP   21
 
 SOLVING FOR HEAD 
                                                   Max.-Head-Change                         Max.-Flux-Residual
  Residual-Control   Outer-Iter.   Inner-Iter.     Column Row Layer    Maximum-Head-Change  Column Row Layer    Maximum-Flux-Residual          L2-NORM 
          0                 1           2             1    1     1       0.3356350702E-02       1    1    1         0.1742170046E+00      0.3362491593E+00
          0                 2           2             1    1     1      -0.3264817047E-03       1    1    1        -0.1742172062E-01      0.3362490312E-01
          0                 3           1             1    1     1       0.2223219063E-04       1    1    1         0.1219520775E-02      0.2353743055E-02

    ------------------------------------------------
       NWT REQUIRED            3 OUTER ITERATIONS 
       AND A TOTAL OF          5 INNER ITERATIONS.
    ------------------------------------------------

 NO OUTPUT CONTROL FOR STRESS PERIOD    9   TIME STEP   22
 
 SOLVING FOR HEAD 
                                                   Max.-Head-Change                         Max.-Flux-Residual
  Residual-Control   Outer-Iter.   Inner-Iter.     Column Row Layer    Maximum-Head-Change  Column Row Layer    Maximum-Flux-Residual          L2-NORM 
          0                 1           2             1    1     1       0.3353201993E-02       1    1    1         0.1740532257E+00      0.3359148904E+00
          0                 2           2             1    1     1      -0.3261754203E-03       1    1    1        -0.1740534267E-01      0.3359148255E-01
          0                 3           1             1    1     1       0.2221133356E-04       1    1    1         0.1218374318E-02      0.2351413366E-02

    ------------------------------------------------
       NWT REQUIRED            3 OUTER ITERATIONS 
       AND A TOTAL OF          5 INNER ITERATIONS.
    ------------------------------------------------

 NO OUTPUT CONTROL FOR STRESS PERIOD    9   TIME STEP   23
 
 SOLVING FOR HEAD 
                                                   Max.-Head-Change                         Max.-Flux-Residual
  Residual-Control   Outer-Iter.   Inner-Iter.     Column Row Layer    Maximum-Head-Change  Column Row Layer    Maximum-Flux-Residual          L2-NORM 
          0                 1           2             1    1     1       0.3350063348E-02       1    1    1         0.1738899702E+00      0.3355793395E+00
          0                 2           2             1    1     1      -0.3258701142E-03       1    1    1        -0.1738901703E-01      0.3355791864E-01
          0                 3           1             1    1     1       0.2219054347E-04       1    1    1         0.1217231523E-02      0.2349048782E-02

    ------------------------------------------------
       NWT REQUIRED            3 OUTER ITERATIONS 
       AND A TOTAL OF          5 INNER ITERATIONS.
    ------------------------------------------------

 NO OUTPUT CONTROL FOR STRESS PERIOD    9   TIME STEP   24
 
 SOLVING FOR HEAD 
                                                   Max.-Head-Change                         Max.-Flux-Residual
  Residual-Control   Outer-Iter.   Inner-Iter.     Column Row Layer    Maximum-Head-Change  Column Row Layer    Maximum-Flux-Residual          L2-NORM 
          0                 1           2             1    1     1       0.3346934735E-02       1    1    1         0.1737272365E+00      0.3352525183E+00
          0                 2           2             1    1     1      -0.3255657844E-03       1    1    1        -0.1737274358E-01      0.3352523330E-01
          0                 3           1             1    1     1       0.2216981988E-04       1    1    1         0.1216092388E-02      0.2346762850E-02

    ------------------------------------------------
       NWT REQUIRED            3 OUTER ITERATIONS 
       AND A TOTAL OF          5 INNER ITERATIONS.
    ------------------------------------------------

 NO OUTPUT CONTROL FOR STRESS PERIOD    9   TIME STEP   25
 
 SOLVING FOR HEAD 
                                                   Max.-Head-Change                         Max.-Flux-Residual
  Residual-Control   Outer-Iter.   Inner-Iter.     Column Row Layer    Maximum-Head-Change  Column Row Layer    Maximum-Flux-Residual          L2-NORM 
          0                 1           2             1    1     1       0.3343816146E-02       1    1    1         0.1735650230E+00      0.3349261045E+00
          0                 2           2             1    1     1      -0.3252624297E-03       1    1    1        -0.1735652216E-01      0.3349259136E-01
          0                 3           1             1    1     1       0.2214916280E-04       1    1    1         0.1214956888E-02      0.2344476963E-02

    ------------------------------------------------
       NWT REQUIRED            3 OUTER ITERATIONS 
       AND A TOTAL OF          5 INNER ITERATIONS.
    ------------------------------------------------

 NO OUTPUT CONTROL FOR STRESS PERIOD    9   TIME STEP   26
 
 SOLVING FOR HEAD 
                                                   Max.-Head-Change                         Max.-Flux-Residual
  Residual-Control   Outer-Iter.   Inner-Iter.     Column Row Layer    Maximum-Head-Change  Column Row Layer    Maximum-Flux-Residual          L2-NORM 
          0                 1           2             1    1     1       0.3340707525E-02       1    1    1         0.1734033292E+00      0.3346052177E+00
          0                 2           2             1    1     1      -0.3249600440E-03       1    1    1        -0.1734035269E-01      0.3346050519E-01
          0                 3           1             1    1     1       0.2212857105E-04       1    1    1         0.1213825014E-02      0.2342234977E-02

    ------------------------------------------------
       NWT REQUIRED            3 OUTER ITERATIONS 
       AND A TOTAL OF          5 INNER ITERATIONS.
    ------------------------------------------------

 NO OUTPUT CONTROL FOR STRESS PERIOD    9   TIME STEP   27
 
 SOLVING FOR HEAD 
                                                   Max.-Head-Change                         Max.-Flux-Residual
  Residual-Control   Outer-Iter.   Inner-Iter.     Column Row Layer    Maximum-Head-Change  Column Row Layer    Maximum-Flux-Residual          L2-NORM 
          0                 1           2             1    1     1       0.3337608858E-02       1    1    1         0.1732421523E+00      0.3342790972E+00
          0                 2           2             1    1     1      -0.3246586273E-03       1    1    1        -0.1732423493E-01      0.3342789648E-01
          0                 3           1             1    1     1       0.2210804579E-04       1    1    1         0.1212696780E-02      0.2339948624E-02

    ------------------------------------------------
       NWT REQUIRED            3 OUTER ITERATIONS 
       AND A TOTAL OF          5 INNER ITERATIONS.
    ------------------------------------------------

 NO OUTPUT CONTROL FOR STRESS PERIOD    9   TIME STEP   28
 
 SOLVING FOR HEAD 
                                                   Max.-Head-Change                         Max.-Flux-Residual
  Residual-Control   Outer-Iter.   Inner-Iter.     Column Row Layer    Maximum-Head-Change  Column Row Layer    Maximum-Flux-Residual          L2-NORM 
          0                 1           2             1    1     1       0.3334497848E-02       1    1    1         0.1730803359E+00      0.3339636785E+00
          0                 2           2             1    1     1      -0.3243560096E-03       1    1    1        -0.1730805321E-01      0.3339635597E-01
          0                 3           1             1    1     1       0.2208743889E-04       1    1    1         0.1211564056E-02      0.2337744326E-02

    ------------------------------------------------
       NWT REQUIRED            3 OUTER ITERATIONS 
       AND A TOTAL OF          5 INNER ITERATIONS.
    ------------------------------------------------

 NO OUTPUT CONTROL FOR STRESS PERIOD    9   TIME STEP   29
 
 SOLVING FOR HEAD 
                                                   Max.-Head-Change                         Max.-Flux-Residual
  Residual-Control   Outer-Iter.   Inner-Iter.     Column Row Layer    Maximum-Head-Change  Column Row Layer    Maximum-Flux-Residual          L2-NORM 
          0                 1           2             1    1     1       0.3331419020E-02       1    1    1         0.1729201906E+00      0.3336503922E+00
          0                 2           2             1    1     1      -0.3240565227E-03       1    1    1        -0.1729203861E-01      0.3336502754E-01
          0                 3           1             1    1     1       0.2206704499E-04       1    1    1         0.1210443040E-02      0.2335552233E-02

    ------------------------------------------------
       NWT REQUIRED            3 OUTER ITERATIONS 
       AND A TOTAL OF          5 INNER ITERATIONS.
    ------------------------------------------------

 NO OUTPUT CONTROL FOR STRESS PERIOD    9   TIME STEP   30



 STREAM LISTING     PERIOD      9   STEP       30

 LAYER ROW COL. STREAM  RCH.  FLOW INTO     FLOW TO   FLOW OUT OF   OVRLND.     DIRECT     STREAM       STREAM     STREAM     STREAM   STREAMBED  STREAMBED
                SEG.NO.  NO.  STRM. RCH.    AQUIFER    STRM. RCH.    RUNOFF     PRECIP       ET          HEAD       DEPTH      WIDTH   CONDCTNC.   GRADIENT

   1    1    1     1     1    4.5750E+01  3.2289E-01   4.5427E+01  0.000E+00  0.000E+00  0.000E+00  1.09442E+03  1.372E+00  1.641E+01  7.386E-02  1.457E+00
   1    2    2     1     2    4.5427E+01  5.0023E-01   4.4927E+01  0.000E+00  0.000E+00  0.000E+00  1.08943E+03  1.369E+00  1.636E+01  1.145E-01  1.456E+00
   1    3    3     1     3    4.4927E+01  4.2678E-01   4.4500E+01  0.000E+00  0.000E+00  0.000E+00  1.08378E+03  1.366E+00  1.629E+01  9.776E-02  1.455E+00
   1    3    4     1     4    4.4500E+01  3.9314E-01   4.4107E+01  0.000E+00  0.000E+00  0.000E+00  1.07877E+03  1.363E+00  1.624E+01  9.011E-02  1.454E+00
   1    4    5     2     1    4.2107E+01  3.6245E-01   4.1744E+01  0.000E+00  0.000E+00  0.000E+00  1.07358E+03  1.647E+00  1.200E+01  7.800E-02  1.549E+00
   1    5    6     2     2    4.1744E+01  2.7835E-01   4.1466E+01  0.000E+00  0.000E+00  0.000E+00  1.06815E+03  1.639E+00  1.200E+01  6.000E-02  1.546E+00
   1    6    6     2     3    4.1466E+01  2.7796E-01   4.1188E+01  0.000E+00  0.000E+00  0.000E+00  1.06343E+03  1.633E+00  1.200E+01  6.000E-02  1.544E+00
   1    7    6     2     4    4.1188E+01  2.7756E-01   4.0910E+01  0.000E+00  0.000E+00  0.000E+00  1.05870E+03  1.626E+00  1.200E+01  6.000E-02  1.542E+00
   1    8    6     2     5    4.0910E+01  2.7717E-01   4.0633E+01  0.000E+00  0.000E+00  0.000E+00  1.05398E+03  1.619E+00  1.200E+01  6.000E-02  1.540E+00
   1    3    5     3     1    2.0000E+00  2.8252E-01   1.7175E+00  0.000E+00  0.000E+00  0.000E+00  1.07555E+03  1.909E+00  9.636E+00  7.227E-02  1.955E+00
   1    3    6     3     2    1.7175E+00  2.4905E-01   1.4684E+00  0.000E+00  0.000E+00  0.000E+00  1.07264E+03  1.727E+00  8.909E+00  6.682E-02  1.864E+00
   1    3    7     3     3    1.4684E+00  1.9718E-01   1.2712E+00  0.000E+00  0.000E+00  0.000E+00  1.06987E+03  1.555E+00  8.218E+00  5.547E-02  1.777E+00
   1    4    8     3     4    1.2712E+00  2.2567E-01   1.0456E+00  0.000E+00  0.000E+00  0.000E+00  1.06682E+03  1.364E+00  7.455E+00  6.709E-02  1.682E+00
   1    5    8     3     5    1.0456E+00  1.5790E-01   8.8768E-01  0.000E+00  0.000E+00  0.000E+00  1.06362E+03  1.164E+00  6.655E+00  4.991E-02  1.582E+00
   1    6    8     3     6    8.8768E-01  5.5980E-02   8.3170E-01  0.000E+00  0.000E+00  0.000E+00  1.06158E+03  1.036E+00  6.145E+00  1.844E-02  1.518E+00
   1    5   10     4     1    1.0000E+01  9.0919E-02   9.9091E+00  0.000E+00  0.000E+00  0.000E+00  1.07836E+03  6.368E-01  1.000E+01  2.500E-02  1.212E+00
   1    5    9     4     2    9.9091E+00  1.8158E-01   9.7275E+00  0.000E+00  0.000E+00  0.000E+00  1.07154E+03  6.315E-01  1.000E+01  5.000E-02  1.211E+00
   1    6    8     4     3    9.7275E+00  1.2689E-01   9.6006E+00  0.000E+00  0.000E+00  0.000E+00  1.06381E+03  6.256E-01  1.000E+01  3.500E-02  1.209E+00
   1    6    8     5     1    1.0432E+01  2.2686E-01   1.0205E+01  0.000E+00  0.000E+00  0.000E+00  1.05868E+03  6.790E-01  1.542E+01  6.166E-02  1.226E+00
   1    7    7     5     2    1.0205E+01  2.7894E-01   9.9265E+00  0.000E+00  0.000E+00  0.000E+00  1.05417E+03  6.732E-01  1.519E+01  7.594E-02  1.224E+00
   1    8    7     5     3    9.9265E+00  1.9221E-01   9.7343E+00  0.000E+00  0.000E+00  0.000E+00  1.04992E+03  6.676E-01  1.497E+01  5.241E-02  1.223E+00
   1    8    6     5     4    9.7343E+00  1.3577E-01   9.5985E+00  0.000E+00  0.000E+00  0.000E+00  1.04691E+03  6.637E-01  1.482E+01  3.706E-02  1.221E+00
   1    9    6     6     1    9.5985E+00  2.2097E-01   9.3776E+00  0.000E+00  0.000E+00  0.000E+00  1.04341E+03  6.828E-01  1.200E+01  6.000E-02  1.228E+00
   1   10    7     6     2    9.3776E+00  2.2039E-01   9.1572E+00  0.000E+00  0.000E+00  0.000E+00  1.03885E+03  6.732E-01  1.200E+01  6.000E-02  1.224E+00
   1   11    7     6     3    9.1572E+00  2.1981E-01   8.9374E+00  0.000E+00  0.000E+00  0.000E+00  1.03430E+03  6.636E-01  1.200E+01  6.000E-02  1.221E+00
   1   12    7     6     4    8.9374E+00  2.1923E-01   8.7181E+00  0.000E+00  0.000E+00  0.000E+00  1.02974E+03  6.539E-01  1.200E+01  6.000E-02  1.218E+00
   1   13    7     6     5    8.7181E+00 -1.1301E-01   8.8311E+00  0.000E+00  0.000E+00  0.000E+00  1.02656E+03  6.515E-01  1.200E+01  2.400E-01 -1.570E-01
   1   14    9     7     1    1.5000E+02  1.3387E+00   1.4866E+02  0.000E+00  0.000E+00  0.000E+00  1.03987E+03  2.288E+00  5.529E+01  5.593E-01  7.979E-01
   1   13    8     7     2    1.4866E+02  1.8426E+00   1.4682E+02  0.000E+00  0.000E+00  0.000E+00  1.03478E+03  2.279E+00  5.526E+01  6.148E-01  9.991E-01
   1   13    7     7     3    1.4682E+02  1.4845E+00   1.4533E+02  0.000E+00  0.000E+00  0.000E+00  1.02969E+03  2.270E+00  5.522E+01  5.584E-01  8.861E-01
   1   13    6     8     1    1.5417E+02  8.3616E-01   1.5333E+02  0.000E+00  0.000E+00  0.000E+00  1.02472E+03  2.843E+00  4.122E+01  4.201E-01  6.635E-01
   1   13    5     8     2    1.5333E+02  1.0688E-01   1.5322E+02  0.000E+00  0.000E+00  0.000E+00  1.01846E+03  2.840E+00  4.118E+01  4.196E-01  8.491E-02
   1   13    4     8     3    1.5322E+02 -2.6568E+00   1.5588E+02  0.000E+00  0.000E+00  0.000E+00  1.01222E+03  2.849E+00  4.130E+01  4.209E+00 -2.104E-01
   1   13    3     8     4    1.5588E+02 -3.7404E+00   1.5962E+02  0.000E+00  0.000E+00  0.000E+00  1.00600E+03  2.871E+00  4.162E+01  4.242E+00 -2.939E-01
   1   13    2     8     5    1.5962E+02 -2.5989E+00   1.6222E+02  0.000E+00  0.000E+00  0.000E+00  9.99767E+02  2.892E+00  4.193E+01  4.273E+00 -2.027E-01
   1   13    1     8     6    1.6222E+02 -1.9808E+00   1.6420E+02  0.000E+00  0.000E+00  0.000E+00  9.94782E+02  2.907E+00  4.216E+01  2.578E+00 -2.562E-01
   1    8    6     9     1    4.0633E+01  0.0000E+00   4.0633E+01  0.000E+00  0.000E+00  0.000E+00  1.08401E+03  5.255E+00  4.000E+00  0.000E+00  2.752E+00
   1    8    5     9     2    4.0633E+01  0.0000E+00   4.0633E+01  0.000E+00  0.000E+00  0.000E+00  1.08351E+03  5.255E+00  4.000E+00  0.000E+00  2.752E+00





UNSATURATED ZONE PACKAGE VOLUMETRIC BUDGET FOR  TIME STEP    30 STRESS PERIOD    9
  ------------------------------------------------------------------------------



     CUMULATIVE VOLUMES      L**3       RATES FOR THIS TIME STEP      L**3/T
     ------------------                 ------------------------

           IN:                                      IN:
           ---                                      ---
        INFILTRATION =    17904622.9819          INFILTRATION =           0.8475

          OUT:                                     OUT:
          ----                                     ----
              UZF ET =    17747589.3915                UZF ET =           0.8475
        UZF RECHARGE =       73224.0000          UZF RECHARGE =       0.0000E+00

            IN - OUT =       83809.5904              IN - OUT =       0.0000E+00

          STORAGE:                                 STORAGE:
          --------                                 --------
      STORAGE CHANGE =       83809.6438        STORAGE CHANGE =       4.1498E-17

 PERCENT DISCREPANCY IS DIFFERENCE BETWEEN IN-OUT MINUS CHANGE IN STORAGE
 DIVIDED BY THE AVERAGE OF IN AND OUT TIMES 100

 PERCENT DISCREPANCY =          -0.00     PERCENT DISCREPANCY =           0.00






1
  VOLUMETRIC BUDGET FOR ENTIRE MODEL AT END OF TIME STEP   30, STRESS PERIOD   9
  ------------------------------------------------------------------------------

     CUMULATIVE VOLUMES      L**3       RATES FOR THIS TIME STEP      L**3/T
     ------------------                 ------------------------

           IN:                                      IN:
           ---                                      ---
             STORAGE     =    11544440.0000               STORAGE     =           0.3923
       CONSTANT HEAD     =           0.0000         CONSTANT HEAD     =           0.0000
     HEAD DEP BOUNDS     =     6038129.0000       HEAD DEP BOUNDS     =           0.2860
      STREAM LEAKAGE     =   252448512.0000        STREAM LEAKAGE     =          12.0073
        UZF RECHARGE     =       73223.9531          UZF RECHARGE     =           0.0000
               GW ET     =           0.0000                 GW ET     =           0.0000
     SURFACE LEAKAGE     =           0.0000       SURFACE LEAKAGE     =           0.0000

                TOTAL IN =   270104288.0000                  TOTAL IN =          12.6855

          OUT:                                     OUT:
          ----                                     ----
             STORAGE     =    29364212.0000               STORAGE     =           1.3088
       CONSTANT HEAD     =           0.0000         CONSTANT HEAD     =           0.0000
     HEAD DEP BOUNDS     =     6062257.0000       HEAD DEP BOUNDS     =           0.2869
      STREAM LEAKAGE     =   234682848.0000        STREAM LEAKAGE     =          11.0900
        UZF RECHARGE     =           0.0000          UZF RECHARGE     =           0.0000
               GW ET     =           0.0000                 GW ET     =           0.0000
     SURFACE LEAKAGE     =           0.0000       SURFACE LEAKAGE     =           0.0000

               TOTAL OUT =   270109312.0000                 TOTAL OUT =          12.6858

                IN - OUT =       -5024.0000                  IN - OUT =      -2.5749E-04

     PERCENT DISCREPANCY =          -0.00         PERCENT DISCREPANCY =          -0.00






         TIME SUMMARY AT END OF TIME STEP   30 IN STRESS PERIOD    9
                    SECONDS     MINUTES      HOURS       DAYS        YEARS
                    -----------------------------------------------------------
   TIME STEP LENGTH  87667.      1461.1      24.352      1.0147     2.77799E-03
 STRESS PERIOD TIME 2.63000E+06  43833.      730.56      30.440     8.33397E-02
         TOTAL TIME 2.11264E+07 3.52107E+05  5868.4      244.52     0.66945    
1
1
                            STRESS PERIOD NO.   10, LENGTH =   2630000.    
                            -----------------------------------------------

                              NUMBER OF TIME STEPS =    30

                               MULTIPLIER FOR DELT =     1.000

                            INITIAL TIME STEP SIZE =   87666.66    

 REUSING NON-PARAMETER GHB CELLS FROM LAST STRESS PERIOD

      2 GHB CELLS

 REUSING STREAM SEGMENT DATA FROM LAST STRESS PERIOD



            AREAL INFILTRATION RATE
 READING ON UNIT   19 WITH FORMAT: (FREE)              

            1           2           3           4           5           6           7           8           9          10
 ........................................................................................................................
   1   1.0000E-10  2.0000E-10   0.000       0.000       0.000       0.000       0.000       0.000       0.000       0.000    
   2   2.0000E-10  1.0000E-10  2.0000E-10   0.000       0.000      8.0000E-10  8.0000E-10  5.0000E-10   0.000       0.000    
   3    0.000      5.0000E-10  1.0000E-10  1.0000E-10  8.0000E-10  8.0000E-10  5.0000E-10  5.0000E-10   0.000       0.000    
   4   8.0000E-10  5.0000E-10  1.0000E-10  1.0000E-10  1.0000E-10  1.0000E-10  1.0000E-10  1.0000E-10  2.0000E-10   0.000    
   5   8.0000E-10  5.0000E-10  1.0000E-10  1.0000E-10  1.0000E-10  1.0000E-10  1.0000E-10  1.0000E-10  1.0000E-10  1.0000E-10
   6   8.0000E-10  5.0000E-10  5.0000E-10  2.0000E-10  2.0000E-10  1.0000E-10  1.0000E-10  1.0000E-10  1.0000E-10  5.0000E-10
   7   8.0000E-10  5.0000E-10  5.0000E-10  2.0000E-10  2.0000E-10  1.0000E-10  1.0000E-10  2.0000E-10  2.0000E-10   0.000    
   8    0.000      5.0000E-10  5.0000E-10  2.0000E-10  2.0000E-10  1.0000E-10  1.0000E-10  2.0000E-10  5.0000E-10   0.000    
   9    0.000      5.0000E-10  5.0000E-10  2.0000E-10  2.0000E-10  1.0000E-10  1.0000E-10  2.0000E-10  5.0000E-10   0.000    
  10    0.000      5.0000E-10  5.0000E-10  2.0000E-10  2.0000E-10  1.0000E-10  1.0000E-10  2.0000E-10  5.0000E-10  8.0000E-10
  11    0.000      1.0000E-10  1.0000E-10  1.0000E-10  1.0000E-10  1.0000E-10  1.0000E-10  2.0000E-10  5.0000E-10   0.000    
  12   1.0000E-10  1.0000E-10  1.0000E-10  1.0000E-10  1.0000E-10  1.0000E-10  1.0000E-10  1.0000E-10  2.0000E-10   0.000    
  13   1.0000E-10  1.0000E-10  2.0000E-10  2.0000E-10  2.0000E-10  2.0000E-10  2.0000E-10  1.0000E-10  1.0000E-10   0.000    
  14    0.000      2.0000E-10  5.0000E-10  5.0000E-10  5.0000E-10  5.0000E-10  5.0000E-10  2.0000E-10  1.0000E-10   0.000    
  15    0.000       0.000      8.0000E-10  8.0000E-10  8.0000E-10  8.0000E-10   0.000       0.000       0.000       0.000    

                  ET RATE =  7.500000E-08

 USING ET EXTINCTION DEPTH FROM PREVIOUS STRESS PERIOD. CURRENT PERIOD IS:      10

 USING EXTINCTION WATER CONTENT FROM PREVIOUS STRESS PERIOD. CURRENT PERIOD IS:      10

 USING AIR ENTRY PRESSURE FROM PREVIOUS STRESS PERIOD. CURRENT PERIOD IS:      10

 USING ROOT PRESSURE HEAD FROM PREVIOUS STRESS PERIOD. CURRENT PERIOD IS:      10

 USING ROOT ACTIVITY FROM PREVIOUS STRESS PERIOD. CURRENT PERIOD IS:      10
 
 SOLVING FOR HEAD 
                                                   Max.-Head-Change                         Max.-Flux-Residual
  Residual-Control   Outer-Iter.   Inner-Iter.     Column Row Layer    Maximum-Head-Change  Column Row Layer    Maximum-Flux-Residual          L2-NORM 
          0                 1           2             1    1     1       0.3224249598E-02       1    1    1         0.1673533446E+00      0.3235818891E+00
          0                 2           2             1    1     1      -0.3136318346E-03       1    1    1        -0.1673535234E-01      0.3235817284E-01
          0                 3           1             1    1     1       0.2135716221E-04       1    1    1         0.1171474993E-02      0.2265069668E-02

    ------------------------------------------------
       NWT REQUIRED            3 OUTER ITERATIONS 
       AND A TOTAL OF          5 INNER ITERATIONS.
    ------------------------------------------------

 NO OUTPUT CONTROL FOR STRESS PERIOD   10   TIME STEP    1
 
 SOLVING FOR HEAD 
                                                   Max.-Head-Change                         Max.-Flux-Residual
  Residual-Control   Outer-Iter.   Inner-Iter.     Column Row Layer    Maximum-Head-Change  Column Row Layer    Maximum-Flux-Residual          L2-NORM 
          0                 1           2             3    2     1       0.2908924101E-02       3    2    1         0.1517735055E+00      0.2774976058E+00
          0                 2           2             3    2     1      -0.2829592889E-03       3    2    1        -0.1517737036E-01      0.2774973909E-01
          0                 3           1             3    2     1       0.1926847680E-04       3    2    1         0.1062416201E-02      0.1942474481E-02

    ------------------------------------------------
       NWT REQUIRED            3 OUTER ITERATIONS 
       AND A TOTAL OF          5 INNER ITERATIONS.
    ------------------------------------------------

 NO OUTPUT CONTROL FOR STRESS PERIOD   10   TIME STEP    2
 
 SOLVING FOR HEAD 
                                                   Max.-Head-Change                         Max.-Flux-Residual
  Residual-Control   Outer-Iter.   Inner-Iter.     Column Row Layer    Maximum-Head-Change  Column Row Layer    Maximum-Flux-Residual          L2-NORM 
          0                 1           2             3    2     1       0.2892815634E-02       3    2    1         0.1509249827E+00      0.2767105571E+00
          0                 2           2             3    2     1      -0.2813923693E-03       3    2    1        -0.1509251774E-01      0.2767103443E-01
          0                 3           1             3    2     1       0.1916177526E-04       3    2    1         0.1056476514E-02      0.1936974454E-02

    ------------------------------------------------
       NWT REQUIRED            3 OUTER ITERATIONS 
       AND A TOTAL OF          5 INNER ITERATIONS.
    ------------------------------------------------

 NO OUTPUT CONTROL FOR STRESS PERIOD   10   TIME STEP    3
 
 SOLVING FOR HEAD 
                                                   Max.-Head-Change                         Max.-Flux-Residual
  Residual-Control   Outer-Iter.   Inner-Iter.     Column Row Layer    Maximum-Head-Change  Column Row Layer    Maximum-Flux-Residual          L2-NORM 
          0                 1           2             3    2     1       0.2876958257E-02       3    2    1         0.1500897761E+00      0.2759601475E+00
          0                 2           2             3    2     1      -0.2798525062E-03       3    2    1        -0.1500899678E-01      0.2759298343E-01
          0                 3           1             3    2     1       0.1905691622E-04       3    2    1         0.1050630044E-02      0.1931508941E-02

    ------------------------------------------------
       NWT REQUIRED            3 OUTER ITERATIONS 
       AND A TOTAL OF          5 INNER ITERATIONS.
    ------------------------------------------------

 NO OUTPUT CONTROL FOR STRESS PERIOD   10   TIME STEP    4
 
 SOLVING FOR HEAD 
                                                   Max.-Head-Change                         Max.-Flux-Residual
  Residual-Control   Outer-Iter.   Inner-Iter.     Column Row Layer    Maximum-Head-Change  Column Row Layer    Maximum-Flux-Residual          L2-NORM 
          0                 1           2             3    2     1       0.2861242973E-02       3    2    1         0.1492629210E+00      0.2752518137E+00
          0                 2           2             3    2     1      -0.2783212010E-03       3    2    1        -0.1492631096E-01      0.2752516453E-01
          0                 3           1             3    2     1       0.1895264011E-04       3    2    1         0.1044842027E-02      0.1926760153E-02

    ------------------------------------------------
       NWT REQUIRED            3 OUTER ITERATIONS 
       AND A TOTAL OF          5 INNER ITERATIONS.
    ------------------------------------------------

 NO OUTPUT CONTROL FOR STRESS PERIOD   10   TIME STEP    5
 
 SOLVING FOR HEAD 
                                                   Max.-Head-Change                         Max.-Flux-Residual
  Residual-Control   Outer-Iter.   Inner-Iter.     Column Row Layer    Maximum-Head-Change  Column Row Layer    Maximum-Flux-Residual          L2-NORM 
          0                 1           2             3    2     1       0.2845760730E-02       3    2    1         0.1484482400E+00      0.2745811385E+00
          0                 2           2             3    2     1      -0.2768151970E-03       3    2    1        -0.1484484258E-01      0.2745809802E-01
          0                 3           1             3    2     1       0.1885008721E-04       3    2    1         0.1039139259E-02      0.1922085688E-02

    ------------------------------------------------
       NWT REQUIRED            3 OUTER ITERATIONS 
       AND A TOTAL OF          5 INNER ITERATIONS.
    ------------------------------------------------

 NO OUTPUT CONTROL FOR STRESS PERIOD   10   TIME STEP    6
 
 SOLVING FOR HEAD 
                                                   Max.-Head-Change                         Max.-Flux-Residual
  Residual-Control   Outer-Iter.   Inner-Iter.     Column Row Layer    Maximum-Head-Change  Column Row Layer    Maximum-Flux-Residual          L2-NORM 
          0                 1           2             3    2     1       0.2830592750E-02       3    2    1         0.1476500296E+00      0.2739414863E+00
          0                 2           2             3    2     1      -0.2753397616E-03       3    2    1        -0.1476502125E-01      0.2739412180E-01
          0                 3           1             3    2     1       0.1874961538E-04       3    2    1         0.1033551761E-02      0.1917589782E-02

    ------------------------------------------------
       NWT REQUIRED            3 OUTER ITERATIONS 
       AND A TOTAL OF          5 INNER ITERATIONS.
    ------------------------------------------------

 NO OUTPUT CONTROL FOR STRESS PERIOD   10   TIME STEP    7
 
 SOLVING FOR HEAD 
                                                   Max.-Head-Change                         Max.-Flux-Residual
  Residual-Control   Outer-Iter.   Inner-Iter.     Column Row Layer    Maximum-Head-Change  Column Row Layer    Maximum-Flux-Residual          L2-NORM 
          0                 1           2             3    2     1       0.2815560199E-02       3    2    1         0.1468590585E+00      0.2733283881E+00
          0                 2           2             3    2     1      -0.2738774999E-03       3    2    1        -0.1468592385E-01      0.2733281583E-01
          0                 3           1             3    2     1       0.1865004078E-04       3    2    1         0.1028014939E-02      0.1913296199E-02

    ------------------------------------------------
       NWT REQUIRED            3 OUTER ITERATIONS 
       AND A TOTAL OF          5 INNER ITERATIONS.
    ------------------------------------------------

 NO OUTPUT CONTROL FOR STRESS PERIOD   10   TIME STEP    8
 
 SOLVING FOR HEAD 
                                                   Max.-Head-Change                         Max.-Flux-Residual
  Residual-Control   Outer-Iter.   Inner-Iter.     Column Row Layer    Maximum-Head-Change  Column Row Layer    Maximum-Flux-Residual          L2-NORM 
          0                 1           2             3    2     1       0.2800747589E-02       3    2    1         0.1460796367E+00      0.2727416488E+00
          0                 2           2             3    2     1      -0.2724366324E-03       3    2    1        -0.1460798137E-01      0.2727417596E-01
          0                 3           1             3    2     1       0.1855192315E-04       3    2    1         0.1022558958E-02      0.1909196143E-02

    ------------------------------------------------
       NWT REQUIRED            3 OUTER ITERATIONS 
       AND A TOTAL OF          5 INNER ITERATIONS.
    ------------------------------------------------

 NO OUTPUT CONTROL FOR STRESS PERIOD   10   TIME STEP    9
 
 SOLVING FOR HEAD 
                                                   Max.-Head-Change                         Max.-Flux-Residual
  Residual-Control   Outer-Iter.   Inner-Iter.     Column Row Layer    Maximum-Head-Change  Column Row Layer    Maximum-Flux-Residual          L2-NORM 
          0                 1           2             3    2     1       0.2786151079E-02       3    2    1         0.1453116186E+00      0.2721843352E+00
          0                 2           2             3    2     1      -0.2710167858E-03       3    2    1        -0.1453117930E-01      0.2721841497E-01
          0                 3           1             3    2     1       0.1845523691E-04       3    2    1         0.1017182809E-02      0.1905286496E-02

    ------------------------------------------------
       NWT REQUIRED            3 OUTER ITERATIONS 
       AND A TOTAL OF          5 INNER ITERATIONS.
    ------------------------------------------------

 NO OUTPUT CONTROL FOR STRESS PERIOD   10   TIME STEP   10
 
 SOLVING FOR HEAD 
                                                   Max.-Head-Change                         Max.-Flux-Residual
  Residual-Control   Outer-Iter.   Inner-Iter.     Column Row Layer    Maximum-Head-Change  Column Row Layer    Maximum-Flux-Residual          L2-NORM 
          0                 1           2             3    2     1       0.2771679323E-02       3    2    1         0.1445502772E+00      0.2716398829E+00
          0                 2           2             3    2     1      -0.2696090748E-03       3    2    1        -0.1445504490E-01      0.2716396676E-01
          0                 3           1             3    2     1       0.1835937737E-04       3    2    1         0.1011853413E-02      0.1901475341E-02

    ------------------------------------------------
       NWT REQUIRED            3 OUTER ITERATIONS 
       AND A TOTAL OF          5 INNER ITERATIONS.
    ------------------------------------------------

 NO OUTPUT CONTROL FOR STRESS PERIOD   10   TIME STEP   11
 
 SOLVING FOR HEAD 
                                                   Max.-Head-Change                         Max.-Flux-Residual
  Residual-Control   Outer-Iter.   Inner-Iter.     Column Row Layer    Maximum-Head-Change  Column Row Layer    Maximum-Flux-Residual          L2-NORM 
          0                 1           2             3    2     1       0.2757503509E-02       3    2    1         0.1438044599E+00      0.2711203674E+00
          0                 2           2             3    2     1      -0.2682301508E-03       3    2    1        -0.1438046291E-01      0.2711201436E-01
          0                 3           1             3    2     1       0.1826547772E-04       3    2    1         0.1006632672E-02      0.1897841978E-02

    ------------------------------------------------
       NWT REQUIRED            3 OUTER ITERATIONS 
       AND A TOTAL OF          5 INNER ITERATIONS.
    ------------------------------------------------

 NO OUTPUT CONTROL FOR STRESS PERIOD   10   TIME STEP   12
 
 SOLVING FOR HEAD 
                                                   Max.-Head-Change                         Max.-Flux-Residual
  Residual-Control   Outer-Iter.   Inner-Iter.     Column Row Layer    Maximum-Head-Change  Column Row Layer    Maximum-Flux-Residual          L2-NORM 
          0                 1           2             3    2     1       0.2743446167E-02       3    2    1         0.1430649310E+00      0.2706158424E+00
          0                 2           2             3    2     1      -0.2668627510E-03       3    2    1        -0.1430650976E-01      0.2706156726E-01
          0                 3           1             3    2     1       0.1817236336E-04       3    2    1         0.1001455970E-02      0.1894306276E-02

    ------------------------------------------------
       NWT REQUIRED            3 OUTER ITERATIONS 
       AND A TOTAL OF          5 INNER ITERATIONS.
    ------------------------------------------------

 NO OUTPUT CONTROL FOR STRESS PERIOD   10   TIME STEP   13
 
 SOLVING FOR HEAD 
                                                   Max.-Head-Change                         Max.-Flux-Residual
  Residual-Control   Outer-Iter.   Inner-Iter.     Column Row Layer    Maximum-Head-Change  Column Row Layer    Maximum-Flux-Residual          L2-NORM 
          0                 1           2             3    2     1       0.2729677518E-02       3    2    1         0.1423406008E+00      0.2701345504E+00
          0                 2           2             3    2     1      -0.2655234333E-03       3    2    1        -0.1423407650E-01      0.2701343652E-01
          0                 3           1             3    2     1       0.1808116084E-04       3    2    1         0.9963856392E-03      0.1890938668E-02

    ------------------------------------------------
       NWT REQUIRED            3 OUTER ITERATIONS 
       AND A TOTAL OF          5 INNER ITERATIONS.
    ------------------------------------------------

 NO OUTPUT CONTROL FOR STRESS PERIOD   10   TIME STEP   14
 
 SOLVING FOR HEAD 
                                                   Max.-Head-Change                         Max.-Flux-Residual
  Residual-Control   Outer-Iter.   Inner-Iter.     Column Row Layer    Maximum-Head-Change  Column Row Layer    Maximum-Flux-Residual          L2-NORM 
          0                 1           2             3    2     1       0.2716020212E-02       3    2    1         0.1416221828E+00      0.2696675636E+00
          0                 2           2             3    2     1      -0.2641949460E-03       3    2    1        -0.1416223445E-01      0.2696673482E-01
          0                 3           1             3    2     1       0.1799069579E-04       3    2    1         0.9913566943E-03      0.1887671781E-02

    ------------------------------------------------
       NWT REQUIRED            3 OUTER ITERATIONS 
       AND A TOTAL OF          5 INNER ITERATIONS.
    ------------------------------------------------

 NO OUTPUT CONTROL FOR STRESS PERIOD   10   TIME STEP   15
 
 SOLVING FOR HEAD 
                                                   Max.-Head-Change                         Max.-Flux-Residual
  Residual-Control   Outer-Iter.   Inner-Iter.     Column Row Layer    Maximum-Head-Change  Column Row Layer    Maximum-Flux-Residual          L2-NORM 
          0                 1           2             3    2     1       0.2702558099E-02       3    2    1         0.1409140659E+00      0.2692095798E+00
          0                 2           2             3    2     1      -0.2628854455E-03       3    2    1        -0.1409142249E-01      0.2692114659E-01
          0                 3           1             3    2     1       0.1790152346E-04       3    2    1         0.9863998484E-03      0.1884479417E-02

    ------------------------------------------------
       NWT REQUIRED            3 OUTER ITERATIONS 
       AND A TOTAL OF          5 INNER ITERATIONS.
    ------------------------------------------------

 NO OUTPUT CONTROL FOR STRESS PERIOD   10   TIME STEP   16
 
 SOLVING FOR HEAD 
                                                   Max.-Head-Change                         Max.-Flux-Residual
  Residual-Control   Outer-Iter.   Inner-Iter.     Column Row Layer    Maximum-Head-Change  Column Row Layer    Maximum-Flux-Residual          L2-NORM 
          0                 1           2             3    2     1       0.2689374258E-02       3    2    1         0.1402205980E+00      0.2687705032E+00
          0                 2           2             3    2     1      -0.2616030137E-03       3    2    1        -0.1402207547E-01      0.2687703287E-01
          0                 3           1             3    2     1       0.1781419457E-04       3    2    1         0.9815455660E-03      0.1881391560E-02

    ------------------------------------------------
       NWT REQUIRED            3 OUTER ITERATIONS 
       AND A TOTAL OF          5 INNER ITERATIONS.
    ------------------------------------------------

 NO OUTPUT CONTROL FOR STRESS PERIOD   10   TIME STEP   17
 
 SOLVING FOR HEAD 
                                                   Max.-Head-Change                         Max.-Flux-Residual
  Residual-Control   Outer-Iter.   Inner-Iter.     Column Row Layer    Maximum-Head-Change  Column Row Layer    Maximum-Flux-Residual          L2-NORM 
          0                 1           2             3    2     1       0.2676292577E-02       3    2    1         0.1395325015E+00      0.2683470053E+00
          0                 2           2             3    2     1      -0.2603305192E-03       3    2    1        -0.1395326560E-01      0.2683467678E-01
          0                 3           1             3    2     1       0.1772754233E-04       3    2    1         0.9767288492E-03      0.1878424826E-02

    ------------------------------------------------
       NWT REQUIRED            3 OUTER ITERATIONS 
       AND A TOTAL OF          5 INNER ITERATIONS.
    ------------------------------------------------

 NO OUTPUT CONTROL FOR STRESS PERIOD   10   TIME STEP   18
 
 SOLVING FOR HEAD 
                                                   Max.-Head-Change                         Max.-Flux-Residual
  Residual-Control   Outer-Iter.   Inner-Iter.     Column Row Layer    Maximum-Head-Change  Column Row Layer    Maximum-Flux-Residual          L2-NORM 
          0                 1           2             3    2     1       0.2663396410E-02       3    2    1         0.1388542302E+00      0.2679338090E+00
          0                 2           2             3    2     1      -0.2590760709E-03       3    2    1        -0.1388543825E-01      0.2679338328E-01
          0                 3           1             3    2     1       0.1764211938E-04       3    2    1         0.9719809557E-03      0.1875571203E-02

    ------------------------------------------------
       NWT REQUIRED            3 OUTER ITERATIONS 
       AND A TOTAL OF          5 INNER ITERATIONS.
    ------------------------------------------------

 NO OUTPUT CONTROL FOR STRESS PERIOD   10   TIME STEP   19
 
 SOLVING FOR HEAD 
                                                   Max.-Head-Change                         Max.-Flux-Residual
  Residual-Control   Outer-Iter.   Inner-Iter.     Column Row Layer    Maximum-Head-Change  Column Row Layer    Maximum-Flux-Residual          L2-NORM 
          0                 1           2             3    2     1       0.2650595617E-02       3    2    1         0.1381810490E+00      0.2675291254E+00
          0                 2           2             3    2     1      -0.2578308991E-03       3    2    1        -0.1381811988E-01      0.2675289677E-01
          0                 3           1             3    2     1       0.1755732786E-04       3    2    1         0.9672686670E-03      0.1872701609E-02

    ------------------------------------------------
       NWT REQUIRED            3 OUTER ITERATIONS 
       AND A TOTAL OF          5 INNER ITERATIONS.
    ------------------------------------------------

 NO OUTPUT CONTROL FOR STRESS PERIOD   10   TIME STEP   20
 
 SOLVING FOR HEAD 
                                                   Max.-Head-Change                         Max.-Flux-Residual
  Residual-Control   Outer-Iter.   Inner-Iter.     Column Row Layer    Maximum-Head-Change  Column Row Layer    Maximum-Flux-Residual          L2-NORM 
          0                 1           2             3    2     1       0.2638061912E-02       3    2    1         0.1375218701E+00      0.2671372439E+00
          0                 2           2             3    2     1      -0.2566117080E-03       3    2    1        -0.1375220178E-01      0.2671370277E-01
          0                 3           1             3    2     1       0.1747430501E-04       3    2    1         0.9626543867E-03      0.1869954708E-02

    ------------------------------------------------
       NWT REQUIRED            3 OUTER ITERATIONS 
       AND A TOTAL OF          5 INNER ITERATIONS.
    ------------------------------------------------

 NO OUTPUT CONTROL FOR STRESS PERIOD   10   TIME STEP   21
 
 SOLVING FOR HEAD 
                                                   Max.-Head-Change                         Max.-Flux-Residual
  Residual-Control   Outer-Iter.   Inner-Iter.     Column Row Layer    Maximum-Head-Change  Column Row Layer    Maximum-Flux-Residual          L2-NORM 
          0                 1           2             3    2     1       0.2625704145E-02       3    2    1         0.1368720108E+00      0.2667590039E+00
          0                 2           2             3    2     1      -0.2554096314E-03       3    2    1        -0.1368721564E-01      0.2667588281E-01
          0                 3           1             3    2     1       0.1739244872E-04       3    2    1         0.9581053666E-03      0.1867310132E-02

    ------------------------------------------------
       NWT REQUIRED            3 OUTER ITERATIONS 
       AND A TOTAL OF          5 INNER ITERATIONS.
    ------------------------------------------------

 NO OUTPUT CONTROL FOR STRESS PERIOD   10   TIME STEP   22
 
 SOLVING FOR HEAD 
                                                   Max.-Head-Change                         Max.-Flux-Residual
  Residual-Control   Outer-Iter.   Inner-Iter.     Column Row Layer    Maximum-Head-Change  Column Row Layer    Maximum-Flux-Residual          L2-NORM 
          0                 1           2             3    2     1       0.2613433407E-02       3    2    1         0.1362267448E+00      0.2663793200E+00
          0                 2           2             3    2     1      -0.2542160196E-03       3    2    1        -0.1362268882E-01      0.2663791545E-01
          0                 3           1             3    2     1       0.1731116778E-04       3    2    1         0.9535884816E-03      0.1864659625E-02

    ------------------------------------------------
       NWT REQUIRED            3 OUTER ITERATIONS 
       AND A TOTAL OF          5 INNER ITERATIONS.
    ------------------------------------------------

 NO OUTPUT CONTROL FOR STRESS PERIOD   10   TIME STEP   23
 
 SOLVING FOR HEAD 
                                                   Max.-Head-Change                         Max.-Flux-Residual
  Residual-Control   Outer-Iter.   Inner-Iter.     Column Row Layer    Maximum-Head-Change  Column Row Layer    Maximum-Flux-Residual          L2-NORM 
          0                 1           2             3    2     1       0.2601419447E-02       3    2    1         0.1355950489E+00      0.2660193619E+00
          0                 2           2             3    2     1      -0.2530473863E-03       3    2    1        -0.1355951904E-01      0.2660191800E-01
          0                 3           1             3    2     1       0.1723158876E-04       3    2    1         0.9491666233E-03      0.1862132369E-02

    ------------------------------------------------
       NWT REQUIRED            3 OUTER ITERATIONS 
       AND A TOTAL OF          5 INNER ITERATIONS.
    ------------------------------------------------

 NO OUTPUT CONTROL FOR STRESS PERIOD   10   TIME STEP   24
 
 SOLVING FOR HEAD 
                                                   Max.-Head-Change                         Max.-Flux-Residual
  Residual-Control   Outer-Iter.   Inner-Iter.     Column Row Layer    Maximum-Head-Change  Column Row Layer    Maximum-Flux-Residual          L2-NORM 
          0                 1           2             1    1     1       0.2594945466E-02       3    2    1         0.1349676088E+00      0.2656621404E+00
          0                 2           2             1    1     1      -0.2524175732E-03       3    2    1        -0.1349677482E-01      0.2656619141E-01
          0                 3           1             1    1     1       0.1718869954E-04       3    2    1         0.9447745112E-03      0.1859634958E-02

    ------------------------------------------------
       NWT REQUIRED            3 OUTER ITERATIONS 
       AND A TOTAL OF          5 INNER ITERATIONS.
    ------------------------------------------------

 NO OUTPUT CONTROL FOR STRESS PERIOD   10   TIME STEP   25
 
 SOLVING FOR HEAD 
                                                   Max.-Head-Change                         Max.-Flux-Residual
  Residual-Control   Outer-Iter.   Inner-Iter.     Column Row Layer    Maximum-Head-Change  Column Row Layer    Maximum-Flux-Residual          L2-NORM 
          0                 1           2             1    1     1       0.2593108337E-02       1    1    1         0.1345680562E+00      0.2653197498E+00
          0                 2           2             1    1     1      -0.2522388702E-03       1    1    1        -0.1345681494E-01      0.2653195518E-01
          0                 3           1             1    1     1       0.1717653051E-04       1    1    1         0.9419773641E-03      0.1857234805E-02

    ------------------------------------------------
       NWT REQUIRED            3 OUTER ITERATIONS 
       AND A TOTAL OF          5 INNER ITERATIONS.
    ------------------------------------------------

 NO OUTPUT CONTROL FOR STRESS PERIOD   10   TIME STEP   26
 
 SOLVING FOR HEAD 
                                                   Max.-Head-Change                         Max.-Flux-Residual
  Residual-Control   Outer-Iter.   Inner-Iter.     Column Row Layer    Maximum-Head-Change  Column Row Layer    Maximum-Flux-Residual          L2-NORM 
          0                 1           2             1    1     1       0.2591276266E-02       1    1    1         0.1344728040E+00      0.2649798990E+00
          0                 2           2             1    1     1      -0.2520606594E-03       1    1    1        -0.1344728970E-01      0.2649797138E-01
          0                 3           1             1    1     1       0.1716439532E-04       1    1    1         0.9413106083E-03      0.1854858647E-02

    ------------------------------------------------
       NWT REQUIRED            3 OUTER ITERATIONS 
       AND A TOTAL OF          5 INNER ITERATIONS.
    ------------------------------------------------

 NO OUTPUT CONTROL FOR STRESS PERIOD   10   TIME STEP   27
 
 SOLVING FOR HEAD 
                                                   Max.-Head-Change                         Max.-Flux-Residual
  Residual-Control   Outer-Iter.   Inner-Iter.     Column Row Layer    Maximum-Head-Change  Column Row Layer    Maximum-Flux-Residual          L2-NORM 
          0                 1           2             1    1     1       0.2589471579E-02       1    1    1         0.1343789720E+00      0.2646466260E+00
          0                 2           2             1    1     1      -0.2518851122E-03       1    1    1        -0.1343790647E-01      0.2646463858E-01
          0                 3           1             1    1     1       0.1715244119E-04       1    1    1         0.9406537832E-03      0.1852521675E-02

    ------------------------------------------------
       NWT REQUIRED            3 OUTER ITERATIONS 
       AND A TOTAL OF          5 INNER ITERATIONS.
    ------------------------------------------------

 NO OUTPUT CONTROL FOR STRESS PERIOD   10   TIME STEP   28
 
 SOLVING FOR HEAD 
                                                   Max.-Head-Change                         Max.-Flux-Residual
  Residual-Control   Outer-Iter.   Inner-Iter.     Column Row Layer    Maximum-Head-Change  Column Row Layer    Maximum-Flux-Residual          L2-NORM 
          0                 1           2             1    1     1       0.2587649639E-02       1    1    1         0.1342842439E+00      0.2643212804E+00
          0                 2           2             1    1     1      -0.2517078865E-03       1    1    1        -0.1342843362E-01      0.2643210443E-01
          0                 3           1             1    1     1       0.1714037275E-04       1    1    1         0.9399906828E-03      0.1850245649E-02

    ------------------------------------------------
       NWT REQUIRED            3 OUTER ITERATIONS 
       AND A TOTAL OF          5 INNER ITERATIONS.
    ------------------------------------------------

 NO OUTPUT CONTROL FOR STRESS PERIOD   10   TIME STEP   29
 
 SOLVING FOR HEAD 
                                                   Max.-Head-Change                         Max.-Flux-Residual
  Residual-Control   Outer-Iter.   Inner-Iter.     Column Row Layer    Maximum-Head-Change  Column Row Layer    Maximum-Flux-Residual          L2-NORM 
          0                 1           2             1    1     1       0.2585832731E-02       1    1    1         0.1341897793E+00      0.2640043887E+00
          0                 2           2             1    1     1      -0.2515311505E-03       1    1    1        -0.1341898714E-01      0.2640042723E-01
          0                 3           1             1    1     1       0.1712833768E-04       1    1    1         0.9393294227E-03      0.1848030210E-02

    ------------------------------------------------
       NWT REQUIRED            3 OUTER ITERATIONS 
       AND A TOTAL OF          5 INNER ITERATIONS.
    ------------------------------------------------

 NO OUTPUT CONTROL FOR STRESS PERIOD   10   TIME STEP   30



 STREAM LISTING     PERIOD     10   STEP       30

 LAYER ROW COL. STREAM  RCH.  FLOW INTO     FLOW TO   FLOW OUT OF   OVRLND.     DIRECT     STREAM       STREAM     STREAM     STREAM   STREAMBED  STREAMBED
                SEG.NO.  NO.  STRM. RCH.    AQUIFER    STRM. RCH.    RUNOFF     PRECIP       ET          HEAD       DEPTH      WIDTH   CONDCTNC.   GRADIENT

   1    1    1     1     1    3.5250E+01  2.8720E-01   3.4963E+01  0.000E+00  0.000E+00  0.000E+00  1.09434E+03  1.294E+00  1.486E+01  6.688E-02  1.431E+00
   1    2    2     1     2    3.4963E+01  4.4467E-01   3.4518E+01  0.000E+00  0.000E+00  0.000E+00  1.08935E+03  1.291E+00  1.480E+01  1.036E-01  1.430E+00
   1    3    3     1     3    3.4518E+01  3.7912E-01   3.4139E+01  0.000E+00  0.000E+00  0.000E+00  1.08371E+03  1.288E+00  1.474E+01  8.841E-02  1.429E+00
   1    3    4     1     4    3.4139E+01  3.4902E-01   3.3790E+01  0.000E+00  0.000E+00  0.000E+00  1.07869E+03  1.285E+00  1.468E+01  8.145E-02  1.428E+00
   1    4    5     2     1    3.1790E+01  3.4244E-01   3.1447E+01  0.000E+00  0.000E+00  0.000E+00  1.07332E+03  1.390E+00  1.200E+01  7.800E-02  1.463E+00
   1    5    6     2     2    3.1447E+01  2.6294E-01   3.1184E+01  0.000E+00  0.000E+00  0.000E+00  1.06789E+03  1.382E+00  1.200E+01  6.000E-02  1.461E+00
   1    6    6     2     3    3.1184E+01  2.6252E-01   3.0922E+01  0.000E+00  0.000E+00  0.000E+00  1.06317E+03  1.375E+00  1.200E+01  6.000E-02  1.458E+00
   1    7    6     2     4    3.0922E+01  2.6210E-01   3.0660E+01  0.000E+00  0.000E+00  0.000E+00  1.05844E+03  1.368E+00  1.200E+01  6.000E-02  1.456E+00
   1    8    6     2     5    3.0660E+01  2.6168E-01   3.0398E+01  0.000E+00  0.000E+00  0.000E+00  1.05372E+03  1.361E+00  1.200E+01  6.000E-02  1.454E+00
   1    3    5     3     1    2.0000E+00  2.8252E-01   1.7175E+00  0.000E+00  0.000E+00  0.000E+00  1.07555E+03  1.909E+00  9.636E+00  7.227E-02  1.955E+00
   1    3    6     3     2    1.7175E+00  2.4905E-01   1.4684E+00  0.000E+00  0.000E+00  0.000E+00  1.07264E+03  1.727E+00  8.909E+00  6.682E-02  1.864E+00
   1    3    7     3     3    1.4684E+00  1.9718E-01   1.2712E+00  0.000E+00  0.000E+00  0.000E+00  1.06987E+03  1.555E+00  8.218E+00  5.547E-02  1.777E+00
   1    4    8     3     4    1.2712E+00  2.2567E-01   1.0456E+00  0.000E+00  0.000E+00  0.000E+00  1.06682E+03  1.364E+00  7.455E+00  6.709E-02  1.682E+00
   1    5    8     3     5    1.0456E+00  1.5790E-01   8.8768E-01  0.000E+00  0.000E+00  0.000E+00  1.06362E+03  1.164E+00  6.655E+00  4.991E-02  1.582E+00
   1    6    8     3     6    8.8768E-01  5.5980E-02   8.3170E-01  0.000E+00  0.000E+00  0.000E+00  1.06158E+03  1.036E+00  6.145E+00  1.844E-02  1.518E+00
   1    5   10     4     1    1.0000E+01  9.0919E-02   9.9091E+00  0.000E+00  0.000E+00  0.000E+00  1.07836E+03  6.368E-01  1.000E+01  2.500E-02  1.212E+00
   1    5    9     4     2    9.9091E+00  1.8158E-01   9.7275E+00  0.000E+00  0.000E+00  0.000E+00  1.07154E+03  6.315E-01  1.000E+01  5.000E-02  1.211E+00
   1    6    8     4     3    9.7275E+00  1.2689E-01   9.6006E+00  0.000E+00  0.000E+00  0.000E+00  1.06381E+03  6.256E-01  1.000E+01  3.500E-02  1.209E+00
   1    6    8     5     1    1.0432E+01  2.2686E-01   1.0205E+01  0.000E+00  0.000E+00  0.000E+00  1.05868E+03  6.790E-01  1.542E+01  6.166E-02  1.226E+00
   1    7    7     5     2    1.0205E+01  2.7894E-01   9.9265E+00  0.000E+00  0.000E+00  0.000E+00  1.05417E+03  6.732E-01  1.519E+01  7.594E-02  1.224E+00
   1    8    7     5     3    9.9265E+00  1.9221E-01   9.7343E+00  0.000E+00  0.000E+00  0.000E+00  1.04992E+03  6.676E-01  1.497E+01  5.241E-02  1.223E+00
   1    8    6     5     4    9.7343E+00  1.3577E-01   9.5985E+00  0.000E+00  0.000E+00  0.000E+00  1.04691E+03  6.637E-01  1.482E+01  3.706E-02  1.221E+00
   1    9    6     6     1    9.5985E+00  2.2097E-01   9.3776E+00  0.000E+00  0.000E+00  0.000E+00  1.04341E+03  6.828E-01  1.200E+01  6.000E-02  1.228E+00
   1   10    7     6     2    9.3776E+00  2.2039E-01   9.1572E+00  0.000E+00  0.000E+00  0.000E+00  1.03885E+03  6.732E-01  1.200E+01  6.000E-02  1.224E+00
   1   11    7     6     3    9.1572E+00  2.1981E-01   8.9374E+00  0.000E+00  0.000E+00  0.000E+00  1.03430E+03  6.636E-01  1.200E+01  6.000E-02  1.221E+00
   1   12    7     6     4    8.9374E+00  2.1923E-01   8.7181E+00  0.000E+00  0.000E+00  0.000E+00  1.02974E+03  6.539E-01  1.200E+01  6.000E-02  1.218E+00
   1   13    7     6     5    8.7181E+00 -1.1277E-01   8.8309E+00  0.000E+00  0.000E+00  0.000E+00  1.02656E+03  6.515E-01  1.200E+01  2.400E-01 -1.566E-01
   1   14    9     7     1    1.5000E+02  1.3392E+00   1.4866E+02  0.000E+00  0.000E+00  0.000E+00  1.03987E+03  2.288E+00  5.529E+01  5.593E-01  7.981E-01
   1   13    8     7     2    1.4866E+02  1.8432E+00   1.4682E+02  0.000E+00  0.000E+00  0.000E+00  1.03478E+03  2.279E+00  5.526E+01  6.148E-01  9.994E-01
   1   13    7     7     3    1.4682E+02  1.4851E+00   1.4533E+02  0.000E+00  0.000E+00  0.000E+00  1.02969E+03  2.270E+00  5.522E+01  5.584E-01  8.864E-01
   1   13    6     8     1    1.5416E+02  8.3674E-01   1.5333E+02  0.000E+00  0.000E+00  0.000E+00  1.02472E+03  2.843E+00  4.122E+01  4.201E-01  6.639E-01
   1   13    5     8     2    1.5333E+02  1.0734E-01   1.5322E+02  0.000E+00  0.000E+00  0.000E+00  1.01846E+03  2.840E+00  4.118E+01  4.196E-01  8.527E-02
   1   13    4     8     3    1.5322E+02 -2.6553E+00   1.5587E+02  0.000E+00  0.000E+00  0.000E+00  1.01222E+03  2.849E+00  4.130E+01  4.209E+00 -2.103E-01
   1   13    3     8     4    1.5587E+02 -3.7393E+00   1.5961E+02  0.000E+00  0.000E+00  0.000E+00  1.00600E+03  2.871E+00  4.162E+01  4.241E+00 -2.939E-01
   1   13    2     8     5    1.5961E+02 -2.5985E+00   1.6221E+02  0.000E+00  0.000E+00  0.000E+00  9.99767E+02  2.892E+00  4.193E+01  4.273E+00 -2.027E-01
   1   13    1     8     6    1.6221E+02 -1.9807E+00   1.6419E+02  0.000E+00  0.000E+00  0.000E+00  9.94782E+02  2.907E+00  4.216E+01  2.578E+00 -2.561E-01
   1    8    6     9     1    3.0398E+01  0.0000E+00   3.0398E+01  0.000E+00  0.000E+00  0.000E+00  1.08317E+03  4.415E+00  4.000E+00  0.000E+00  2.472E+00
   1    8    5     9     2    3.0398E+01  0.0000E+00   3.0398E+01  0.000E+00  0.000E+00  0.000E+00  1.08267E+03  4.415E+00  4.000E+00  0.000E+00  2.472E+00





UNSATURATED ZONE PACKAGE VOLUMETRIC BUDGET FOR  TIME STEP    30 STRESS PERIOD   10
  ------------------------------------------------------------------------------



     CUMULATIVE VOLUMES      L**3       RATES FOR THIS TIME STEP      L**3/T
     ------------------                 ------------------------

           IN:                                      IN:
           ---                                      ---
        INFILTRATION =    20133547.8547          INFILTRATION =           0.8475

          OUT:                                     OUT:
          ----                                     ----
              UZF ET =    19976514.2643                UZF ET =           0.8475
        UZF RECHARGE =       73224.0000          UZF RECHARGE =       0.0000E+00

            IN - OUT =       83809.5904              IN - OUT =       0.0000E+00

          STORAGE:                                 STORAGE:
          --------                                 --------
      STORAGE CHANGE =       83809.6438        STORAGE CHANGE =      -2.2824E-16

 PERCENT DISCREPANCY IS DIFFERENCE BETWEEN IN-OUT MINUS CHANGE IN STORAGE
 DIVIDED BY THE AVERAGE OF IN AND OUT TIMES 100

 PERCENT DISCREPANCY =           0.00     PERCENT DISCREPANCY =           0.00






1
  VOLUMETRIC BUDGET FOR ENTIRE MODEL AT END OF TIME STEP   30, STRESS PERIOD  10
  ------------------------------------------------------------------------------

     CUMULATIVE VOLUMES      L**3       RATES FOR THIS TIME STEP      L**3/T
     ------------------                 ------------------------

           IN:                                      IN:
           ---                                      ---
             STORAGE     =    12557261.0000               STORAGE     =           0.3665
       CONSTANT HEAD     =           0.0000         CONSTANT HEAD     =           0.0000
     HEAD DEP BOUNDS     =     6790238.5000       HEAD DEP BOUNDS     =           0.2860
      STREAM LEAKAGE     =   283354496.0000        STREAM LEAKAGE     =          11.7451
        UZF RECHARGE     =       73223.9531          UZF RECHARGE     =           0.0000
               GW ET     =           0.0000                 GW ET     =           0.0000
     SURFACE LEAKAGE     =           0.0000       SURFACE LEAKAGE     =           0.0000

                TOTAL IN =   302775200.0000                  TOTAL IN =          12.3976

          OUT:                                     OUT:
          ----                                     ----
             STORAGE     =    32119082.0000               STORAGE     =           1.0243
       CONSTANT HEAD     =           0.0000         CONSTANT HEAD     =           0.0000
     HEAD DEP BOUNDS     =     6816892.0000       HEAD DEP BOUNDS     =           0.2869
      STREAM LEAKAGE     =   263844736.0000        STREAM LEAKAGE     =          11.0865
        UZF RECHARGE     =           0.0000          UZF RECHARGE     =           0.0000
               GW ET     =           0.0000                 GW ET     =           0.0000
     SURFACE LEAKAGE     =           0.0000       SURFACE LEAKAGE     =           0.0000

               TOTAL OUT =   302780704.0000                 TOTAL OUT =          12.3978

                IN - OUT =       -5504.0000                  IN - OUT =      -1.8406E-04

     PERCENT DISCREPANCY =          -0.00         PERCENT DISCREPANCY =          -0.00






         TIME SUMMARY AT END OF TIME STEP   30 IN STRESS PERIOD   10
                    SECONDS     MINUTES      HOURS       DAYS        YEARS
                    -----------------------------------------------------------
   TIME STEP LENGTH  87667.      1461.1      24.352      1.0147     2.77799E-03
 STRESS PERIOD TIME 2.63000E+06  43833.      730.56      30.440     8.33397E-02
         TOTAL TIME 2.37564E+07 3.95940E+05  6599.0      274.96     0.75279    
1
1
                            STRESS PERIOD NO.   11, LENGTH =   2630000.    
                            -----------------------------------------------

                              NUMBER OF TIME STEPS =    30

                               MULTIPLIER FOR DELT =     1.000

                            INITIAL TIME STEP SIZE =   87666.66    

 REUSING NON-PARAMETER GHB CELLS FROM LAST STRESS PERIOD

      2 GHB CELLS

 REUSING STREAM SEGMENT DATA FROM LAST STRESS PERIOD



            AREAL INFILTRATION RATE
 READING ON UNIT   19 WITH FORMAT: (FREE)              

            1           2           3           4           5           6           7           8           9          10
 ........................................................................................................................
   1   1.0000E-10  2.0000E-10   0.000       0.000       0.000       0.000       0.000       0.000       0.000       0.000    
   2   2.0000E-10  1.0000E-10  2.0000E-10   0.000       0.000      8.0000E-10  8.0000E-10  5.0000E-10   0.000       0.000    
   3    0.000      5.0000E-10  1.0000E-10  1.0000E-10  8.0000E-10  8.0000E-10  5.0000E-10  5.0000E-10   0.000       0.000    
   4   8.0000E-10  5.0000E-10  1.0000E-10  1.0000E-10  1.0000E-10  1.0000E-10  1.0000E-10  1.0000E-10  2.0000E-10   0.000    
   5   8.0000E-10  5.0000E-10  1.0000E-10  1.0000E-10  1.0000E-10  1.0000E-10  1.0000E-10  1.0000E-10  1.0000E-10  1.0000E-10
   6   8.0000E-10  5.0000E-10  5.0000E-10  2.0000E-10  2.0000E-10  1.0000E-10  1.0000E-10  1.0000E-10  1.0000E-10  5.0000E-10
   7   8.0000E-10  5.0000E-10  5.0000E-10  2.0000E-10  2.0000E-10  1.0000E-10  1.0000E-10  2.0000E-10  2.0000E-10   0.000    
   8    0.000      5.0000E-10  5.0000E-10  2.0000E-10  2.0000E-10  1.0000E-10  1.0000E-10  2.0000E-10  5.0000E-10   0.000    
   9    0.000      5.0000E-10  5.0000E-10  2.0000E-10  2.0000E-10  1.0000E-10  1.0000E-10  2.0000E-10  5.0000E-10   0.000    
  10    0.000      5.0000E-10  5.0000E-10  2.0000E-10  2.0000E-10  1.0000E-10  1.0000E-10  2.0000E-10  5.0000E-10  8.0000E-10
  11    0.000      1.0000E-10  1.0000E-10  1.0000E-10  1.0000E-10  1.0000E-10  1.0000E-10  2.0000E-10  5.0000E-10   0.000    
  12   1.0000E-10  1.0000E-10  1.0000E-10  1.0000E-10  1.0000E-10  1.0000E-10  1.0000E-10  1.0000E-10  2.0000E-10   0.000    
  13   1.0000E-10  1.0000E-10  2.0000E-10  2.0000E-10  2.0000E-10  2.0000E-10  2.0000E-10  1.0000E-10  1.0000E-10   0.000    
  14    0.000      2.0000E-10  5.0000E-10  5.0000E-10  5.0000E-10  5.0000E-10  5.0000E-10  2.0000E-10  1.0000E-10   0.000    
  15    0.000       0.000      8.0000E-10  8.0000E-10  8.0000E-10  8.0000E-10   0.000       0.000       0.000       0.000    

                  ET RATE =  5.000000E-09

 USING ET EXTINCTION DEPTH FROM PREVIOUS STRESS PERIOD. CURRENT PERIOD IS:      11

 USING EXTINCTION WATER CONTENT FROM PREVIOUS STRESS PERIOD. CURRENT PERIOD IS:      11

 USING AIR ENTRY PRESSURE FROM PREVIOUS STRESS PERIOD. CURRENT PERIOD IS:      11

 USING ROOT PRESSURE HEAD FROM PREVIOUS STRESS PERIOD. CURRENT PERIOD IS:      11

 USING ROOT ACTIVITY FROM PREVIOUS STRESS PERIOD. CURRENT PERIOD IS:      11
 
 SOLVING FOR HEAD 
                                                   Max.-Head-Change                         Max.-Flux-Residual
  Residual-Control   Outer-Iter.   Inner-Iter.     Column Row Layer    Maximum-Head-Change  Column Row Layer    Maximum-Flux-Residual          L2-NORM 
          0                 1           2             3    2     1       0.2517042909E-02       3    2    1         0.1313854412E+00      0.2408565448E+00
          0                 2           2             3    2     1      -0.2448398674E-03       3    2    1        -0.1313855943E-01      0.2408566666E-01
          0                 3           1             3    2     1       0.1667268577E-04       3    2    1         0.9196994098E-03      0.1686089299E-02

    ------------------------------------------------
       NWT REQUIRED            3 OUTER ITERATIONS 
       AND A TOTAL OF          5 INNER ITERATIONS.
    ------------------------------------------------

 NO OUTPUT CONTROL FOR STRESS PERIOD   11   TIME STEP    1
 
 SOLVING FOR HEAD 
                                                   Max.-Head-Change                         Max.-Flux-Residual
  Residual-Control   Outer-Iter.   Inner-Iter.     Column Row Layer    Maximum-Head-Change  Column Row Layer    Maximum-Flux-Residual          L2-NORM 
          0                 1           2             3    2     1       0.2497032314E-02       3    2    1         0.1305881774E+00      0.2237435234E+00
          0                 2           2             3    2     1      -0.2428934024E-03       3    2    1        -0.1305883441E-01      0.2237432925E-01
          0                 3           1             3    2     1       0.1654013785E-04       3    2    1         0.9141186478E-03      0.1566204848E-02

    ------------------------------------------------
       NWT REQUIRED            3 OUTER ITERATIONS 
       AND A TOTAL OF          5 INNER ITERATIONS.
    ------------------------------------------------

 NO OUTPUT CONTROL FOR STRESS PERIOD   11   TIME STEP    2
 
 SOLVING FOR HEAD 
                                                   Max.-Head-Change                         Max.-Flux-Residual
  Residual-Control   Outer-Iter.   Inner-Iter.     Column Row Layer    Maximum-Head-Change  Column Row Layer    Maximum-Flux-Residual          L2-NORM 
          0                 1           2             3    2     1       0.2477428813E-02       3    2    1         0.1295551033E+00      0.2225403095E+00
          0                 2           2             3    2     1      -0.2409865120E-03       3    2    1        -0.1295552672E-01      0.2225401276E-01
          0                 3           1             3    2     1       0.1641028564E-04       3    2    1         0.9068871054E-03      0.1557777468E-02

    ------------------------------------------------
       NWT REQUIRED            3 OUTER ITERATIONS 
       AND A TOTAL OF          5 INNER ITERATIONS.
    ------------------------------------------------

 NO OUTPUT CONTROL FOR STRESS PERIOD   11   TIME STEP    3
 
 SOLVING FOR HEAD 
                                                   Max.-Head-Change                         Max.-Flux-Residual
  Residual-Control   Outer-Iter.   Inner-Iter.     Column Row Layer    Maximum-Head-Change  Column Row Layer    Maximum-Flux-Residual          L2-NORM 
          0                 1           2             3    2     1       0.2458053216E-02       3    2    1         0.1285341523E+00      0.2213925625E+00
          0                 2           2             3    2     1      -0.2391017901E-03       3    2    1        -0.1285343131E-01      0.2213923133E-01
          0                 3           1             3    2     1       0.1628194317E-04       3    2    1         0.8997404255E-03      0.1549742508E-02

    ------------------------------------------------
       NWT REQUIRED            3 OUTER ITERATIONS 
       AND A TOTAL OF          5 INNER ITERATIONS.
    ------------------------------------------------

 NO OUTPUT CONTROL FOR STRESS PERIOD   11   TIME STEP    4
 
 SOLVING FOR HEAD 
                                                   Max.-Head-Change                         Max.-Flux-Residual
  Residual-Control   Outer-Iter.   Inner-Iter.     Column Row Layer    Maximum-Head-Change  Column Row Layer    Maximum-Flux-Residual          L2-NORM 
          0                 1           2             3    2     1       0.2439073431E-02       3    2    1         0.1275340773E+00      0.2202988837E+00
          0                 2           2             3    2     1      -0.2372555706E-03       3    2    1        -0.1275342354E-01      0.2202987205E-01
          0                 3           1             3    2     1       0.1615622233E-04       3    2    1         0.8927398771E-03      0.1542094837E-02

    ------------------------------------------------
       NWT REQUIRED            3 OUTER ITERATIONS 
       AND A TOTAL OF          5 INNER ITERATIONS.
    ------------------------------------------------

 NO OUTPUT CONTROL FOR STRESS PERIOD   11   TIME STEP    5
 
 SOLVING FOR HEAD 
                                                   Max.-Head-Change                         Max.-Flux-Residual
  Residual-Control   Outer-Iter.   Inner-Iter.     Column Row Layer    Maximum-Head-Change  Column Row Layer    Maximum-Flux-Residual          L2-NORM 
          0                 1           2             3    2     1       0.2420311580E-02       3    2    1         0.1265454652E+00      0.2192548726E+00
          0                 2           2             3    2     1      -0.2354305496E-03       3    2    1        -0.1265456204E-01      0.2192546574E-01
          0                 3           1             3    2     1       0.1603194520E-04       3    2    1         0.8858195663E-03      0.1534781500E-02

    ------------------------------------------------
       NWT REQUIRED            3 OUTER ITERATIONS 
       AND A TOTAL OF          5 INNER ITERATIONS.
    ------------------------------------------------

 NO OUTPUT CONTROL FOR STRESS PERIOD   11   TIME STEP    6
 
 SOLVING FOR HEAD 
                                                   Max.-Head-Change                         Max.-Flux-Residual
  Residual-Control   Outer-Iter.   Inner-Iter.     Column Row Layer    Maximum-Head-Change  Column Row Layer    Maximum-Flux-Residual          L2-NORM 
          0                 1           2             3    2     1       0.2401848542E-02       3    2    1         0.1255726825E+00      0.2182579087E+00
          0                 2           2             3    2     1      -0.2336345957E-03       3    2    1        -0.1255728351E-01      0.2182576688E-01
          0                 3           1             3    2     1       0.1590964760E-04       3    2    1         0.8790100721E-03      0.1527800396E-02

    ------------------------------------------------
       NWT REQUIRED            3 OUTER ITERATIONS 
       AND A TOTAL OF          5 INNER ITERATIONS.
    ------------------------------------------------

 NO OUTPUT CONTROL FOR STRESS PERIOD   11   TIME STEP    7
 
 SOLVING FOR HEAD 
                                                   Max.-Head-Change                         Max.-Flux-Residual
  Residual-Control   Outer-Iter.   Inner-Iter.     Column Row Layer    Maximum-Head-Change  Column Row Layer    Maximum-Flux-Residual          L2-NORM 
          0                 1           2             3    2     1       0.2383680080E-02       3    2    1         0.1246153930E+00      0.2172991986E+00
          0                 2           2             3    2     1      -0.2318672960E-03       3    2    1        -0.1246155429E-01      0.2172989636E-01
          0                 3           1             3    2     1       0.1578930137E-04       3    2    1         0.8723090381E-03      0.1521090650E-02

    ------------------------------------------------
       NWT REQUIRED            3 OUTER ITERATIONS 
       AND A TOTAL OF          5 INNER ITERATIONS.
    ------------------------------------------------

 NO OUTPUT CONTROL FOR STRESS PERIOD   11   TIME STEP    8
 
 SOLVING FOR HEAD 
                                                   Max.-Head-Change                         Max.-Flux-Residual
  Residual-Control   Outer-Iter.   Inner-Iter.     Column Row Layer    Maximum-Head-Change  Column Row Layer    Maximum-Flux-Residual          L2-NORM 
          0                 1           2             3    2     1       0.2365800958E-02       3    2    1         0.1236733769E+00      0.2163852906E+00
          0                 2           2             3    2     1      -0.2301281407E-03       3    2    1        -0.1236735241E-01      0.2163850548E-01
          0                 3           1             3    2     1       0.1567087124E-04       3    2    1         0.8657149019E-03      0.1514695725E-02

    ------------------------------------------------
       NWT REQUIRED            3 OUTER ITERATIONS 
       AND A TOTAL OF          5 INNER ITERATIONS.
    ------------------------------------------------

 NO OUTPUT CONTROL FOR STRESS PERIOD   11   TIME STEP    9
 
 SOLVING FOR HEAD 
                                                   Max.-Head-Change                         Max.-Flux-Residual
  Residual-Control   Outer-Iter.   Inner-Iter.     Column Row Layer    Maximum-Head-Change  Column Row Layer    Maximum-Flux-Residual          L2-NORM 
          0                 1           2             3    2     1       0.2348119918E-02       3    2    1         0.1227418326E+00      0.2155117409E+00
          0                 2           2             3    2     1      -0.2284082538E-03       3    2    1        -0.1227419773E-01      0.2155114948E-01
          0                 3           1             3    2     1       0.1555375348E-04       3    2    1         0.8591940806E-03      0.1508572034E-02

    ------------------------------------------------
       NWT REQUIRED            3 OUTER ITERATIONS 
       AND A TOTAL OF          5 INNER ITERATIONS.
    ------------------------------------------------

 NO OUTPUT CONTROL FOR STRESS PERIOD   11   TIME STEP   10
 
 SOLVING FOR HEAD 
                                                   Max.-Head-Change                         Max.-Flux-Residual
  Residual-Control   Outer-Iter.   Inner-Iter.     Column Row Layer    Maximum-Head-Change  Column Row Layer    Maximum-Flux-Residual          L2-NORM 
          0                 1           2             3    2     1       0.2330805378E-02       3    2    1         0.1218296191E+00      0.2146706591E+00
          0                 2           2             3    2     1      -0.2267240174E-03       3    2    1        -0.1218297612E-01      0.2146704504E-01
          0                 3           1             3    2     1       0.1543906350E-04       3    2    1         0.8528085689E-03      0.1502689394E-02

    ------------------------------------------------
       NWT REQUIRED            3 OUTER ITERATIONS 
       AND A TOTAL OF          5 INNER ITERATIONS.
    ------------------------------------------------

 NO OUTPUT CONTROL FOR STRESS PERIOD   11   TIME STEP   11
 
 SOLVING FOR HEAD 
                                                   Max.-Head-Change                         Max.-Flux-Residual
  Residual-Control   Outer-Iter.   Inner-Iter.     Column Row Layer    Maximum-Head-Change  Column Row Layer    Maximum-Flux-Residual          L2-NORM 
          0                 1           2             3    2     1       0.2313678480E-02       3    2    1         0.1209273476E+00      0.2138597920E+00
          0                 2           2             3    2     1      -0.2250580340E-03       3    2    1        -0.1209274874E-01      0.2138595633E-01
          0                 3           1             3    2     1       0.1532561630E-04       3    2    1         0.8464926594E-03      0.1497015610E-02

    ------------------------------------------------
       NWT REQUIRED            3 OUTER ITERATIONS 
       AND A TOTAL OF          5 INNER ITERATIONS.
    ------------------------------------------------

 NO OUTPUT CONTROL FOR STRESS PERIOD   11   TIME STEP   12
 
 SOLVING FOR HEAD 
                                                   Max.-Head-Change                         Max.-Flux-Residual
  Residual-Control   Outer-Iter.   Inner-Iter.     Column Row Layer    Maximum-Head-Change  Column Row Layer    Maximum-Flux-Residual          L2-NORM 
          0                 1           2             3    2     1       0.2296822118E-02       3    2    1         0.1200393355E+00      0.2130829454E+00
          0                 2           2             3    2     1      -0.2234183653E-03       3    2    1        -0.1200394727E-01      0.2130827657E-01
          0                 3           1             3    2     1       0.1521396095E-04       3    2    1         0.8402765384E-03      0.1491578676E-02

    ------------------------------------------------
       NWT REQUIRED            3 OUTER ITERATIONS 
       AND A TOTAL OF          5 INNER ITERATIONS.
    ------------------------------------------------

 NO OUTPUT CONTROL FOR STRESS PERIOD   11   TIME STEP   13
 
 SOLVING FOR HEAD 
                                                   Max.-Head-Change                         Max.-Flux-Residual
  Residual-Control   Outer-Iter.   Inner-Iter.     Column Row Layer    Maximum-Head-Change  Column Row Layer    Maximum-Flux-Residual          L2-NORM 
          0                 1           2             3    2     1       0.2280231089E-02       3    2    1         0.1191653505E+00      0.2123361869E+00
          0                 2           2             3    2     1      -0.2218045073E-03       3    2    1        -0.1191654853E-01      0.2123359364E-01
          0                 3           1             3    2     1       0.1510406314E-04       3    2    1         0.8341586314E-03      0.1486346373E-02

    ------------------------------------------------
       NWT REQUIRED            3 OUTER ITERATIONS 
       AND A TOTAL OF          5 INNER ITERATIONS.
    ------------------------------------------------

 NO OUTPUT CONTROL FOR STRESS PERIOD   11   TIME STEP   14
 
 SOLVING FOR HEAD 
                                                   Max.-Head-Change                         Max.-Flux-Residual
  Residual-Control   Outer-Iter.   Inner-Iter.     Column Row Layer    Maximum-Head-Change  Column Row Layer    Maximum-Flux-Residual          L2-NORM 
          0                 1           2             3    2     1       0.2263902145E-02       3    2    1         0.1183051226E+00      0.2116170103E+00
          0                 2           2             3    2     1      -0.2202161424E-03       3    2    1        -0.1183052550E-01      0.2116167504E-01
          0                 3           1             3    2     1       0.1499590156E-04       3    2    1         0.8281370166E-03      0.1481313668E-02

    ------------------------------------------------
       NWT REQUIRED            3 OUTER ITERATIONS 
       AND A TOTAL OF          5 INNER ITERATIONS.
    ------------------------------------------------

 NO OUTPUT CONTROL FOR STRESS PERIOD   11   TIME STEP   15
 
 SOLVING FOR HEAD 
                                                   Max.-Head-Change                         Max.-Flux-Residual
  Residual-Control   Outer-Iter.   Inner-Iter.     Column Row Layer    Maximum-Head-Change  Column Row Layer    Maximum-Flux-Residual          L2-NORM 
          0                 1           2             3    2     1       0.2247829561E-02       3    2    1         0.1174584836E+00      0.2109266426E+00
          0                 2           2             3    2     1      -0.2186527154E-03       3    2    1        -0.1174586139E-01      0.2109264388E-01
          0                 3           1             3    2     1       0.1488943811E-04       3    2    1         0.8222105322E-03      0.1476482178E-02

    ------------------------------------------------
       NWT REQUIRED            3 OUTER ITERATIONS 
       AND A TOTAL OF          5 INNER ITERATIONS.
    ------------------------------------------------

 NO OUTPUT CONTROL FOR STRESS PERIOD   11   TIME STEP   16
 
 SOLVING FOR HEAD 
                                                   Max.-Head-Change                         Max.-Flux-Residual
  Residual-Control   Outer-Iter.   Inner-Iter.     Column Row Layer    Maximum-Head-Change  Column Row Layer    Maximum-Flux-Residual          L2-NORM 
          0                 1           2             3    2     1       0.2232009454E-02       3    2    1         0.1166251366E+00      0.2102590817E+00
          0                 2           2             3    2     1      -0.2171138468E-03       3    2    1        -0.1166252646E-01      0.2102588311E-01
          0                 3           1             3    2     1       0.1478464700E-04       3    2    1         0.8163770894E-03      0.1471809736E-02

    ------------------------------------------------
       NWT REQUIRED            3 OUTER ITERATIONS 
       AND A TOTAL OF          5 INNER ITERATIONS.
    ------------------------------------------------

 NO OUTPUT CONTROL FOR STRESS PERIOD   11   TIME STEP   17
 
 SOLVING FOR HEAD 
                                                   Max.-Head-Change                         Max.-Flux-Residual
  Residual-Control   Outer-Iter.   Inner-Iter.     Column Row Layer    Maximum-Head-Change  Column Row Layer    Maximum-Flux-Residual          L2-NORM 
          0                 1           2             3    2     1       0.2216437730E-02       3    2    1         0.1158048803E+00      0.2096162323E+00
          0                 2           2             3    2     1      -0.2155991394E-03       3    2    1        -0.1158050060E-01      0.2096159389E-01
          0                 3           1             3    2     1       0.1468150123E-04       3    2    1         0.8106352835E-03      0.1467308124E-02

    ------------------------------------------------
       NWT REQUIRED            3 OUTER ITERATIONS 
       AND A TOTAL OF          5 INNER ITERATIONS.
    ------------------------------------------------

 NO OUTPUT CONTROL FOR STRESS PERIOD   11   TIME STEP   18
 
 SOLVING FOR HEAD 
                                                   Max.-Head-Change                         Max.-Flux-Residual
  Residual-Control   Outer-Iter.   Inner-Iter.     Column Row Layer    Maximum-Head-Change  Column Row Layer    Maximum-Flux-Residual          L2-NORM 
          0                 1           2             3    2     1       0.2201022366E-02       3    2    1         0.1149929715E+00      0.2089926613E+00
          0                 2           2             3    2     1      -0.2140996422E-03       3    2    1        -0.1149930954E-01      0.2089924225E-01
          0                 3           1             3    2     1       0.1457939068E-04       3    2    1         0.8049519041E-03      0.1462948219E-02

    ------------------------------------------------
       NWT REQUIRED            3 OUTER ITERATIONS 
       AND A TOTAL OF          5 INNER ITERATIONS.
    ------------------------------------------------

 NO OUTPUT CONTROL FOR STRESS PERIOD   11   TIME STEP   19
 
 SOLVING FOR HEAD 
                                                   Max.-Head-Change                         Max.-Flux-Residual
  Residual-Control   Outer-Iter.   Inner-Iter.     Column Row Layer    Maximum-Head-Change  Column Row Layer    Maximum-Flux-Residual          L2-NORM 
          0                 1           2             3    2     1       0.2185934027E-02       3    2    1         0.1141982315E+00      0.2083890954E+00
          0                 2           2             3    2     1      -0.2126319548E-03       3    2    1        -0.1141983533E-01      0.2083888641E-01
          0                 3           1             3    2     1       0.1447944687E-04       3    2    1         0.7993886990E-03      0.1458721908E-02

    ------------------------------------------------
       NWT REQUIRED            3 OUTER ITERATIONS 
       AND A TOTAL OF          5 INNER ITERATIONS.
    ------------------------------------------------

 NO OUTPUT CONTROL FOR STRESS PERIOD   11   TIME STEP   20
 
 SOLVING FOR HEAD 
                                                   Max.-Head-Change                         Max.-Flux-Residual
  Residual-Control   Outer-Iter.   Inner-Iter.     Column Row Layer    Maximum-Head-Change  Column Row Layer    Maximum-Flux-Residual          L2-NORM 
          0                 1           2             3    2     1       0.2170994540E-02       3    2    1         0.1134113856E+00      0.2078073712E+00
          0                 2           2             3    2     1      -0.2111787469E-03       3    2    1        -0.1134115053E-01      0.2078073475E-01
          0                 3           1             3    2     1       0.1438048881E-04       3    2    1         0.7938807670E-03      0.1454653161E-02

    ------------------------------------------------
       NWT REQUIRED            3 OUTER ITERATIONS 
       AND A TOTAL OF          5 INNER ITERATIONS.
    ------------------------------------------------

 NO OUTPUT CONTROL FOR STRESS PERIOD   11   TIME STEP   21
 
 SOLVING FOR HEAD 
                                                   Max.-Head-Change                         Max.-Flux-Residual
  Residual-Control   Outer-Iter.   Inner-Iter.     Column Row Layer    Maximum-Head-Change  Column Row Layer    Maximum-Flux-Residual          L2-NORM 
          0                 1           2             3    2     1       0.2156287100E-02       3    2    1         0.1126367885E+00      0.2072431492E+00
          0                 2           2             3    2     1      -0.2097481109E-03       3    2    1        -0.1126369062E-01      0.2072429260E-01
          0                 3           1             3    2     1       0.1428306793E-04       3    2    1         0.7884585715E-03      0.1450705569E-02

    ------------------------------------------------
       NWT REQUIRED            3 OUTER ITERATIONS 
       AND A TOTAL OF          5 INNER ITERATIONS.
    ------------------------------------------------

 NO OUTPUT CONTROL FOR STRESS PERIOD   11   TIME STEP   22
 
 SOLVING FOR HEAD 
                                                   Max.-Head-Change                         Max.-Flux-Residual
  Residual-Control   Outer-Iter.   Inner-Iter.     Column Row Layer    Maximum-Head-Change  Column Row Layer    Maximum-Flux-Residual          L2-NORM 
          0                 1           2             3    2     1       0.2141807605E-02       3    2    1         0.1118742227E+00      0.2067004040E+00
          0                 2           2             3    2     1      -0.2083396477E-03       3    2    1        -0.1118743383E-01      0.2067001870E-01
          0                 3           1             3    2     1       0.1418715680E-04       3    2    1         0.7831205955E-03      0.1446905087E-02

    ------------------------------------------------
       NWT REQUIRED            3 OUTER ITERATIONS 
       AND A TOTAL OF          5 INNER ITERATIONS.
    ------------------------------------------------

 NO OUTPUT CONTROL FOR STRESS PERIOD   11   TIME STEP   23
 
 SOLVING FOR HEAD 
                                                   Max.-Head-Change                         Max.-Flux-Residual
  Residual-Control   Outer-Iter.   Inner-Iter.     Column Row Layer    Maximum-Head-Change  Column Row Layer    Maximum-Flux-Residual          L2-NORM 
          0                 1           2             3    2     1       0.2127553086E-02       3    2    1         0.1111234757E+00      0.2061731312E+00
          0                 2           2             3    2     1      -0.2069530691E-03       3    2    1        -0.1111235895E-01      0.2061728248E-01
          0                 3           1             3    2     1       0.1409273576E-04       3    2    1         0.7778653483E-03      0.1443205519E-02

    ------------------------------------------------
       NWT REQUIRED            3 OUTER ITERATIONS 
       AND A TOTAL OF          5 INNER ITERATIONS.
    ------------------------------------------------

 NO OUTPUT CONTROL FOR STRESS PERIOD   11   TIME STEP   24
 
 SOLVING FOR HEAD 
                                                   Max.-Head-Change                         Max.-Flux-Residual
  Residual-Control   Outer-Iter.   Inner-Iter.     Column Row Layer    Maximum-Head-Change  Column Row Layer    Maximum-Flux-Residual          L2-NORM 
          0                 1           2             3    2     1       0.2113518474E-02       3    2    1         0.1103843935E+00      0.2056627882E+00
          0                 2           2             3    2     1      -0.2055878812E-03       3    2    1        -0.1103845053E-01      0.2056624913E-01
          0                 3           1             3    2     1       0.1399977192E-04       3    2    1         0.7726917696E-03      0.1439635982E-02

    ------------------------------------------------
       NWT REQUIRED            3 OUTER ITERATIONS 
       AND A TOTAL OF          5 INNER ITERATIONS.
    ------------------------------------------------

 NO OUTPUT CONTROL FOR STRESS PERIOD   11   TIME STEP   25
 
 SOLVING FOR HEAD 
                                                   Max.-Head-Change                         Max.-Flux-Residual
  Residual-Control   Outer-Iter.   Inner-Iter.     Column Row Layer    Maximum-Head-Change  Column Row Layer    Maximum-Flux-Residual          L2-NORM 
          0                 1           2             3    2     1       0.2099700286E-02       3    2    1         0.1096567132E+00      0.2051677170E+00
          0                 2           2             3    2     1      -0.2042437457E-03       3    2    1        -0.1096568233E-01      0.2051674547E-01
          0                 3           1             3    2     1       0.1390824137E-04       3    2    1         0.7675979911E-03      0.1436161713E-02

    ------------------------------------------------
       NWT REQUIRED            3 OUTER ITERATIONS 
       AND A TOTAL OF          5 INNER ITERATIONS.
    ------------------------------------------------

 NO OUTPUT CONTROL FOR STRESS PERIOD   11   TIME STEP   26
 
 SOLVING FOR HEAD 
                                                   Max.-Head-Change                         Max.-Flux-Residual
  Residual-Control   Outer-Iter.   Inner-Iter.     Column Row Layer    Maximum-Head-Change  Column Row Layer    Maximum-Flux-Residual          L2-NORM 
          0                 1           2             3    2     1       0.2086008824E-02       3    2    1         0.1089357228E+00      0.2046856501E+00
          0                 2           2             3    2     1      -0.2029119370E-03       3    2    1        -0.1089358311E-01      0.2046853899E-01
          0                 3           1             3    2     1       0.1381755007E-04       3    2    1         0.7625510451E-03      0.1432794348E-02

    ------------------------------------------------
       NWT REQUIRED            3 OUTER ITERATIONS 
       AND A TOTAL OF          5 INNER ITERATIONS.
    ------------------------------------------------

 NO OUTPUT CONTROL FOR STRESS PERIOD   11   TIME STEP   27
 
 SOLVING FOR HEAD 
                                                   Max.-Head-Change                         Max.-Flux-Residual
  Residual-Control   Outer-Iter.   Inner-Iter.     Column Row Layer    Maximum-Head-Change  Column Row Layer    Maximum-Flux-Residual          L2-NORM 
          0                 1           2             3    2     1       0.2072613579E-02       3    2    1         0.1082303659E+00      0.2042232728E+00
          0                 2           2             3    2     1      -0.2016089425E-03       3    2    1        -0.1082304725E-01      0.2042229408E-01
          0                 3           1             3    2     1       0.1372882102E-04       3    2    1         0.7576135358E-03      0.1429556248E-02

    ------------------------------------------------
       NWT REQUIRED            3 OUTER ITERATIONS 
       AND A TOTAL OF          5 INNER ITERATIONS.
    ------------------------------------------------

 NO OUTPUT CONTROL FOR STRESS PERIOD   11   TIME STEP   28
 
 SOLVING FOR HEAD 
                                                   Max.-Head-Change                         Max.-Flux-Residual
  Residual-Control   Outer-Iter.   Inner-Iter.     Column Row Layer    Maximum-Head-Change  Column Row Layer    Maximum-Flux-Residual          L2-NORM 
          0                 1           2             3    2     1       0.2059337594E-02       3    2    1         0.1075313046E+00      0.2037651461E+00
          0                 2           2             3    2     1      -0.2003175484E-03       3    2    1        -0.1075314093E-01      0.2037648800E-01
          0                 3           1             3    2     1       0.1364088176E-04       3    2    1         0.7527201033E-03      0.1426353260E-02

    ------------------------------------------------
       NWT REQUIRED            3 OUTER ITERATIONS 
       AND A TOTAL OF          5 INNER ITERATIONS.
    ------------------------------------------------

 NO OUTPUT CONTROL FOR STRESS PERIOD   11   TIME STEP   29
 
 SOLVING FOR HEAD 
                                                   Max.-Head-Change                         Max.-Flux-Residual
  Residual-Control   Outer-Iter.   Inner-Iter.     Column Row Layer    Maximum-Head-Change  Column Row Layer    Maximum-Flux-Residual          L2-NORM 
          0                 1           2             3    2     1       0.2046350506E-02       3    2    1         0.1068474899E+00      0.2033322681E+00
          0                 2           2             3    2     1      -0.1990542562E-03       3    2    1        -0.1068475929E-01      0.2033320261E-01
          0                 3           1             3    2     1       0.1355485623E-04       3    2    1         0.7479333798E-03      0.1423323634E-02

    ------------------------------------------------
       NWT REQUIRED            3 OUTER ITERATIONS 
       AND A TOTAL OF          5 INNER ITERATIONS.
    ------------------------------------------------

 NO OUTPUT CONTROL FOR STRESS PERIOD   11   TIME STEP   30



 STREAM LISTING     PERIOD     11   STEP       30

 LAYER ROW COL. STREAM  RCH.  FLOW INTO     FLOW TO   FLOW OUT OF   OVRLND.     DIRECT     STREAM       STREAM     STREAM     STREAM   STREAMBED  STREAMBED
                SEG.NO.  NO.  STRM. RCH.    AQUIFER    STRM. RCH.    RUNOFF     PRECIP       ET          HEAD       DEPTH      WIDTH   CONDCTNC.   GRADIENT

   1    1    1     1     1    2.6250E+01  2.5084E-01   2.5999E+01  0.000E+00  0.000E+00  0.000E+00  1.09424E+03  1.197E+00  1.328E+01  5.977E-02  1.399E+00
   1    2    2     1     2    2.5999E+01  3.8795E-01   2.5611E+01  0.000E+00  0.000E+00  0.000E+00  1.08925E+03  1.192E+00  1.322E+01  9.255E-02  1.397E+00
   1    3    3     1     3    2.5611E+01  3.3035E-01   2.5281E+01  0.000E+00  0.000E+00  0.000E+00  1.08361E+03  1.187E+00  1.315E+01  7.890E-02  1.396E+00
   1    3    4     1     4    2.5281E+01  3.0378E-01   2.4977E+01  0.000E+00  0.000E+00  0.000E+00  1.07859E+03  1.182E+00  1.309E+01  7.264E-02  1.394E+00
   1    4    5     2     1    2.2977E+01  3.2316E-01   2.2654E+01  0.000E+00  0.000E+00  0.000E+00  1.07308E+03  1.143E+00  1.200E+01  7.800E-02  1.381E+00
   1    5    6     2     2    2.2654E+01  2.4807E-01   2.2406E+01  0.000E+00  0.000E+00  0.000E+00  1.06764E+03  1.134E+00  1.200E+01  6.000E-02  1.378E+00
   1    6    6     2     3    2.2406E+01  2.4762E-01   2.2158E+01  0.000E+00  0.000E+00  0.000E+00  1.06292E+03  1.127E+00  1.200E+01  6.000E-02  1.376E+00
   1    7    6     2     4    2.2158E+01  2.4717E-01   2.1911E+01  0.000E+00  0.000E+00  0.000E+00  1.05819E+03  1.119E+00  1.200E+01  6.000E-02  1.373E+00
   1    8    6     2     5    2.1911E+01  2.4671E-01   2.1664E+01  0.000E+00  0.000E+00  0.000E+00  1.05347E+03  1.112E+00  1.200E+01  6.000E-02  1.371E+00
   1    3    5     3     1    2.0000E+00  2.8252E-01   1.7175E+00  0.000E+00  0.000E+00  0.000E+00  1.07555E+03  1.909E+00  9.636E+00  7.227E-02  1.955E+00
   1    3    6     3     2    1.7175E+00  2.4905E-01   1.4684E+00  0.000E+00  0.000E+00  0.000E+00  1.07264E+03  1.727E+00  8.909E+00  6.682E-02  1.864E+00
   1    3    7     3     3    1.4684E+00  1.9718E-01   1.2712E+00  0.000E+00  0.000E+00  0.000E+00  1.06987E+03  1.555E+00  8.218E+00  5.547E-02  1.777E+00
   1    4    8     3     4    1.2712E+00  2.2567E-01   1.0456E+00  0.000E+00  0.000E+00  0.000E+00  1.06682E+03  1.364E+00  7.455E+00  6.709E-02  1.682E+00
   1    5    8     3     5    1.0456E+00  1.5790E-01   8.8768E-01  0.000E+00  0.000E+00  0.000E+00  1.06362E+03  1.164E+00  6.655E+00  4.991E-02  1.582E+00
   1    6    8     3     6    8.8768E-01  5.5980E-02   8.3170E-01  0.000E+00  0.000E+00  0.000E+00  1.06158E+03  1.036E+00  6.145E+00  1.844E-02  1.518E+00
   1    5   10     4     1    1.0000E+01  9.0919E-02   9.9091E+00  0.000E+00  0.000E+00  0.000E+00  1.07836E+03  6.368E-01  1.000E+01  2.500E-02  1.212E+00
   1    5    9     4     2    9.9091E+00  1.8158E-01   9.7275E+00  0.000E+00  0.000E+00  0.000E+00  1.07154E+03  6.315E-01  1.000E+01  5.000E-02  1.211E+00
   1    6    8     4     3    9.7275E+00  1.2689E-01   9.6006E+00  0.000E+00  0.000E+00  0.000E+00  1.06381E+03  6.256E-01  1.000E+01  3.500E-02  1.209E+00
   1    6    8     5     1    1.0432E+01  2.2686E-01   1.0205E+01  0.000E+00  0.000E+00  0.000E+00  1.05868E+03  6.790E-01  1.542E+01  6.166E-02  1.226E+00
   1    7    7     5     2    1.0205E+01  2.7894E-01   9.9265E+00  0.000E+00  0.000E+00  0.000E+00  1.05417E+03  6.732E-01  1.519E+01  7.594E-02  1.224E+00
   1    8    7     5     3    9.9265E+00  1.9221E-01   9.7343E+00  0.000E+00  0.000E+00  0.000E+00  1.04992E+03  6.676E-01  1.497E+01  5.241E-02  1.223E+00
   1    8    6     5     4    9.7343E+00  1.3577E-01   9.5985E+00  0.000E+00  0.000E+00  0.000E+00  1.04691E+03  6.637E-01  1.482E+01  3.706E-02  1.221E+00
   1    9    6     6     1    9.5985E+00  2.2097E-01   9.3776E+00  0.000E+00  0.000E+00  0.000E+00  1.04341E+03  6.828E-01  1.200E+01  6.000E-02  1.228E+00
   1   10    7     6     2    9.3776E+00  2.2039E-01   9.1572E+00  0.000E+00  0.000E+00  0.000E+00  1.03885E+03  6.732E-01  1.200E+01  6.000E-02  1.224E+00
   1   11    7     6     3    9.1572E+00  2.1981E-01   8.9374E+00  0.000E+00  0.000E+00  0.000E+00  1.03430E+03  6.636E-01  1.200E+01  6.000E-02  1.221E+00
   1   12    7     6     4    8.9374E+00  2.1923E-01   8.7181E+00  0.000E+00  0.000E+00  0.000E+00  1.02974E+03  6.539E-01  1.200E+01  6.000E-02  1.218E+00
   1   13    7     6     5    8.7181E+00 -1.1255E-01   8.8307E+00  0.000E+00  0.000E+00  0.000E+00  1.02656E+03  6.515E-01  1.200E+01  2.400E-01 -1.563E-01
   1   14    9     7     1    1.5000E+02  1.3396E+00   1.4866E+02  0.000E+00  0.000E+00  0.000E+00  1.03987E+03  2.288E+00  5.529E+01  5.593E-01  7.984E-01
   1   13    8     7     2    1.4866E+02  1.8438E+00   1.4682E+02  0.000E+00  0.000E+00  0.000E+00  1.03478E+03  2.279E+00  5.526E+01  6.148E-01  9.997E-01
   1   13    7     7     3    1.4682E+02  1.4856E+00   1.4533E+02  0.000E+00  0.000E+00  0.000E+00  1.02969E+03  2.270E+00  5.522E+01  5.584E-01  8.867E-01
   1   13    6     8     1    1.5416E+02  8.3727E-01   1.5332E+02  0.000E+00  0.000E+00  0.000E+00  1.02472E+03  2.843E+00  4.122E+01  4.201E-01  6.644E-01
   1   13    5     8     2    1.5332E+02  1.0781E-01   1.5322E+02  0.000E+00  0.000E+00  0.000E+00  1.01846E+03  2.840E+00  4.118E+01  4.196E-01  8.565E-02
   1   13    4     8     3    1.5322E+02 -2.6538E+00   1.5587E+02  0.000E+00  0.000E+00  0.000E+00  1.01222E+03  2.849E+00  4.130E+01  4.209E+00 -2.102E-01
   1   13    3     8     4    1.5587E+02 -3.7382E+00   1.5961E+02  0.000E+00  0.000E+00  0.000E+00  1.00600E+03  2.870E+00  4.162E+01  4.241E+00 -2.938E-01
   1   13    2     8     5    1.5961E+02 -2.5981E+00   1.6221E+02  0.000E+00  0.000E+00  0.000E+00  9.99767E+02  2.892E+00  4.193E+01  4.273E+00 -2.027E-01
   1   13    1     8     6    1.6221E+02 -1.9806E+00   1.6419E+02  0.000E+00  0.000E+00  0.000E+00  9.94782E+02  2.907E+00  4.216E+01  2.578E+00 -2.561E-01
   1    8    6     9     1    2.1664E+01  0.0000E+00   2.1664E+01  0.000E+00  0.000E+00  0.000E+00  1.08235E+03  3.603E+00  4.000E+00  0.000E+00  2.201E+00
   1    8    5     9     2    2.1664E+01  0.0000E+00   2.1664E+01  0.000E+00  0.000E+00  0.000E+00  1.08185E+03  3.603E+00  4.000E+00  0.000E+00  2.201E+00





UNSATURATED ZONE PACKAGE VOLUMETRIC BUDGET FOR  TIME STEP    30 STRESS PERIOD   11
  ------------------------------------------------------------------------------



     CUMULATIVE VOLUMES      L**3       RATES FOR THIS TIME STEP      L**3/T
     ------------------                 ------------------------

           IN:                                      IN:
           ---                                      ---
        INFILTRATION =    22362472.7274          INFILTRATION =           0.8475

          OUT:                                     OUT:
          ----                                     ----
              UZF ET =    22205439.1370                UZF ET =           0.8475
        UZF RECHARGE =       73224.0000          UZF RECHARGE =       0.0000E+00

            IN - OUT =       83809.5904              IN - OUT =       0.0000E+00

          STORAGE:                                 STORAGE:
          --------                                 --------
      STORAGE CHANGE =       83809.6438        STORAGE CHANGE =       1.3487E-16

 PERCENT DISCREPANCY IS DIFFERENCE BETWEEN IN-OUT MINUS CHANGE IN STORAGE
 DIVIDED BY THE AVERAGE OF IN AND OUT TIMES 100

 PERCENT DISCREPANCY =           0.00     PERCENT DISCREPANCY =           0.00






1
  VOLUMETRIC BUDGET FOR ENTIRE MODEL AT END OF TIME STEP   30, STRESS PERIOD  11
  ------------------------------------------------------------------------------

     CUMULATIVE VOLUMES      L**3       RATES FOR THIS TIME STEP      L**3/T
     ------------------                 ------------------------

           IN:                                      IN:
           ---                                      ---
             STORAGE     =    13535260.0000               STORAGE     =           0.3489
       CONSTANT HEAD     =           0.0000         CONSTANT HEAD     =           0.0000
     HEAD DEP BOUNDS     =     7542427.5000       HEAD DEP BOUNDS     =           0.2860
      STREAM LEAKAGE     =   313560192.0000        STREAM LEAKAGE     =          11.4816
        UZF RECHARGE     =       73223.9531          UZF RECHARGE     =           0.0000
               GW ET     =           0.0000                 GW ET     =           0.0000
     SURFACE LEAKAGE     =           0.0000       SURFACE LEAKAGE     =           0.0000

                TOTAL IN =   334711104.0000                  TOTAL IN =          12.1165

          OUT:                                     OUT:
          ----                                     ----
             STORAGE     =    34147576.0000               STORAGE     =           0.7465
       CONSTANT HEAD     =           0.0000         CONSTANT HEAD     =           0.0000
     HEAD DEP BOUNDS     =     7571513.5000       HEAD DEP BOUNDS     =           0.2869
      STREAM LEAKAGE     =   292997760.0000        STREAM LEAKAGE     =          11.0832
        UZF RECHARGE     =           0.0000          UZF RECHARGE     =           0.0000
               GW ET     =           0.0000                 GW ET     =           0.0000
     SURFACE LEAKAGE     =           0.0000       SURFACE LEAKAGE     =           0.0000

               TOTAL OUT =   334716864.0000                 TOTAL OUT =          12.1166

                IN - OUT =       -5760.0000                  IN - OUT =      -1.0967E-04

     PERCENT DISCREPANCY =          -0.00         PERCENT DISCREPANCY =          -0.00






         TIME SUMMARY AT END OF TIME STEP   30 IN STRESS PERIOD   11
                    SECONDS     MINUTES      HOURS       DAYS        YEARS
                    -----------------------------------------------------------
   TIME STEP LENGTH  87667.      1461.1      24.352      1.0147     2.77799E-03
 STRESS PERIOD TIME 2.63000E+06  43833.      730.56      30.440     8.33397E-02
         TOTAL TIME 2.63864E+07 4.39773E+05  7329.5      305.40     0.83613    
1
1
                            STRESS PERIOD NO.   12, LENGTH =   2630000.    
                            -----------------------------------------------

                              NUMBER OF TIME STEPS =    30

                               MULTIPLIER FOR DELT =     1.000

                            INITIAL TIME STEP SIZE =   87666.66    

 REUSING NON-PARAMETER GHB CELLS FROM LAST STRESS PERIOD

      2 GHB CELLS

 REUSING STREAM SEGMENT DATA FROM LAST STRESS PERIOD



            AREAL INFILTRATION RATE
 READING ON UNIT   19 WITH FORMAT: (FREE)              

            1           2           3           4           5           6           7           8           9          10
 ........................................................................................................................
   1   1.0000E-10  2.0000E-10   0.000       0.000       0.000       0.000       0.000       0.000       0.000       0.000    
   2   2.0000E-10  1.0000E-10  2.0000E-10   0.000       0.000      8.0000E-10  8.0000E-10  5.0000E-10   0.000       0.000    
   3    0.000      5.0000E-10  1.0000E-10  1.0000E-10  8.0000E-10  8.0000E-10  5.0000E-10  5.0000E-10   0.000       0.000    
   4   8.0000E-10  5.0000E-10  1.0000E-10  1.0000E-10  1.0000E-10  1.0000E-10  1.0000E-10  1.0000E-10  2.0000E-10   0.000    
   5   8.0000E-10  5.0000E-10  1.0000E-10  1.0000E-10  1.0000E-10  1.0000E-10  1.0000E-10  1.0000E-10  1.0000E-10  1.0000E-10
   6   8.0000E-10  5.0000E-10  5.0000E-10  2.0000E-10  2.0000E-10  1.0000E-10  1.0000E-10  1.0000E-10  1.0000E-10  5.0000E-10
   7   8.0000E-10  5.0000E-10  5.0000E-10  2.0000E-10  2.0000E-10  1.0000E-10  1.0000E-10  2.0000E-10  2.0000E-10   0.000    
   8    0.000      5.0000E-10  5.0000E-10  2.0000E-10  2.0000E-10  1.0000E-10  1.0000E-10  2.0000E-10  5.0000E-10   0.000    
   9    0.000      5.0000E-10  5.0000E-10  2.0000E-10  2.0000E-10  1.0000E-10  1.0000E-10  2.0000E-10  5.0000E-10   0.000    
  10    0.000      5.0000E-10  5.0000E-10  2.0000E-10  2.0000E-10  1.0000E-10  1.0000E-10  2.0000E-10  5.0000E-10  8.0000E-10
  11    0.000      1.0000E-10  1.0000E-10  1.0000E-10  1.0000E-10  1.0000E-10  1.0000E-10  2.0000E-10  5.0000E-10   0.000    
  12   1.0000E-10  1.0000E-10  1.0000E-10  1.0000E-10  1.0000E-10  1.0000E-10  1.0000E-10  1.0000E-10  2.0000E-10   0.000    
  13   1.0000E-10  1.0000E-10  2.0000E-10  2.0000E-10  2.0000E-10  2.0000E-10  2.0000E-10  1.0000E-10  1.0000E-10   0.000    
  14    0.000      2.0000E-10  5.0000E-10  5.0000E-10  5.0000E-10  5.0000E-10  5.0000E-10  2.0000E-10  1.0000E-10   0.000    
  15    0.000       0.000      8.0000E-10  8.0000E-10  8.0000E-10  8.0000E-10   0.000       0.000       0.000       0.000    

                  ET RATE =  5.000000E-10

 USING ET EXTINCTION DEPTH FROM PREVIOUS STRESS PERIOD. CURRENT PERIOD IS:      12

 USING EXTINCTION WATER CONTENT FROM PREVIOUS STRESS PERIOD. CURRENT PERIOD IS:      12

 USING AIR ENTRY PRESSURE FROM PREVIOUS STRESS PERIOD. CURRENT PERIOD IS:      12

 USING ROOT PRESSURE HEAD FROM PREVIOUS STRESS PERIOD. CURRENT PERIOD IS:      12

 USING ROOT ACTIVITY FROM PREVIOUS STRESS PERIOD. CURRENT PERIOD IS:      12
 
 SOLVING FOR HEAD 
                                                   Max.-Head-Change                         Max.-Flux-Residual
  Residual-Control   Outer-Iter.   Inner-Iter.     Column Row Layer    Maximum-Head-Change  Column Row Layer    Maximum-Flux-Residual          L2-NORM 
          0                 1           2             3    2     1       0.2026616887E-02       3    2    1         0.1061695910E+00      0.1874025534E+00
          0                 2           2             3    2     1      -0.1971347261E-03       3    2    1        -0.1061697028E-01      0.1874023256E-01
          0                 3           1             3    2     1       0.1342414182E-04       3    2    1         0.7431881230E-03      0.1311815796E-02

    ------------------------------------------------
       NWT REQUIRED            3 OUTER ITERATIONS 
       AND A TOTAL OF          5 INNER ITERATIONS.
    ------------------------------------------------

 NO OUTPUT CONTROL FOR STRESS PERIOD   12   TIME STEP    1
 
 SOLVING FOR HEAD 
                                                   Max.-Head-Change                         Max.-Flux-Residual
  Residual-Control   Outer-Iter.   Inner-Iter.     Column Row Layer    Maximum-Head-Change  Column Row Layer    Maximum-Flux-Residual          L2-NORM 
          0                 1           2             3    2     1       0.2005561139E-02       3    2    1         0.1051463181E+00      0.1865921527E+00
          0                 2           2             3    2     1      -0.1950865711E-03       3    2    1        -0.1051464266E-01      0.1865919484E-01
          0                 3           1             3    2     1       0.1328467002E-04       3    2    1         0.7360252014E-03      0.1306149470E-02

    ------------------------------------------------
       NWT REQUIRED            3 OUTER ITERATIONS 
       AND A TOTAL OF          5 INNER ITERATIONS.
    ------------------------------------------------

 NO OUTPUT CONTROL FOR STRESS PERIOD   12   TIME STEP    2
 
 SOLVING FOR HEAD 
                                                   Max.-Head-Change                         Max.-Flux-Residual
  Residual-Control   Outer-Iter.   Inner-Iter.     Column Row Layer    Maximum-Head-Change  Column Row Layer    Maximum-Flux-Residual          L2-NORM 
          0                 1           2             3    2     1       0.1984856785E-02       3    2    1         0.1040545740E+00      0.1850165307E+00
          0                 2           2             3    2     1      -0.1930725989E-03       3    2    1        -0.1040546803E-01      0.1850163550E-01
          0                 3           1             3    2     1       0.1314752638E-04       3    2    1         0.7283829816E-03      0.1295119043E-02

    ------------------------------------------------
       NWT REQUIRED            3 OUTER ITERATIONS 
       AND A TOTAL OF          5 INNER ITERATIONS.
    ------------------------------------------------

 NO OUTPUT CONTROL FOR STRESS PERIOD   12   TIME STEP    3
 
 SOLVING FOR HEAD 
                                                   Max.-Head-Change                         Max.-Flux-Residual
  Residual-Control   Outer-Iter.   Inner-Iter.     Column Row Layer    Maximum-Head-Change  Column Row Layer    Maximum-Flux-Residual          L2-NORM 
          0                 1           2             3    2     1       0.1964499121E-02       3    2    1         0.1029810741E+00      0.1835035297E+00
          0                 2           2             3    2     1      -0.1910923500E-03       3    2    1        -0.1029811782E-01      0.1835033011E-01
          0                 3           1             3    2     1       0.1301267847E-04       3    2    1         0.7208684577E-03      0.1284520832E-02

    ------------------------------------------------
       NWT REQUIRED            3 OUTER ITERATIONS 
       AND A TOTAL OF          5 INNER ITERATIONS.
    ------------------------------------------------

 NO OUTPUT CONTROL FOR STRESS PERIOD   12   TIME STEP    4
 
 SOLVING FOR HEAD 
                                                   Max.-Head-Change                         Max.-Flux-Residual
  Residual-Control   Outer-Iter.   Inner-Iter.     Column Row Layer    Maximum-Head-Change  Column Row Layer    Maximum-Flux-Residual          L2-NORM 
          0                 1           2             3    2     1       0.1944394761E-02       3    2    1         0.1019210178E+00      0.1820517050E+00
          0                 2           2             3    2     1      -0.1891367407E-03       3    2    1        -0.1019211200E-01      0.1820514078E-01
          0                 3           1             3    2     1       0.1287950881E-04       3    2    1         0.7134480429E-03      0.1274357736E-02

    ------------------------------------------------
       NWT REQUIRED            3 OUTER ITERATIONS 
       AND A TOTAL OF          5 INNER ITERATIONS.
    ------------------------------------------------

 NO OUTPUT CONTROL FOR STRESS PERIOD   12   TIME STEP    5
 
 SOLVING FOR HEAD 
                                                   Max.-Head-Change                         Max.-Flux-Residual
  Residual-Control   Outer-Iter.   Inner-Iter.     Column Row Layer    Maximum-Head-Change  Column Row Layer    Maximum-Flux-Residual          L2-NORM 
          0                 1           2             3    2     1       0.1924712284E-02       3    2    1         0.1008831589E+00      0.1806549124E+00
          0                 2           2             3    2     1      -0.1872221699E-03       3    2    1        -0.1008832591E-01      0.1806547758E-01
          0                 3           1             3    2     1       0.1274913403E-04       3    2    1         0.7061830288E-03      0.1264591952E-02

    ------------------------------------------------
       NWT REQUIRED            3 OUTER ITERATIONS 
       AND A TOTAL OF          5 INNER ITERATIONS.
    ------------------------------------------------

 NO OUTPUT CONTROL FOR STRESS PERIOD   12   TIME STEP    6
 
 SOLVING FOR HEAD 
                                                   Max.-Head-Change                         Max.-Flux-Residual
  Residual-Control   Outer-Iter.   Inner-Iter.     Column Row Layer    Maximum-Head-Change  Column Row Layer    Maximum-Flux-Residual          L2-NORM 
          0                 1           2             3    2     1       0.1905272156E-02       3    2    1         0.9985811032E-01      0.1793104380E+00
          0                 2           2             3    2     1      -0.1853311721E-03       3    2    1        -0.9985820842E-02      0.1793101739E-01
          0                 3           1             3    2     1       0.1262036412E-04       3    2    1         0.6990076640E-03      0.1255176715E-02

    ------------------------------------------------
       NWT REQUIRED            3 OUTER ITERATIONS 
       AND A TOTAL OF          5 INNER ITERATIONS.
    ------------------------------------------------

 NO OUTPUT CONTROL FOR STRESS PERIOD   12   TIME STEP    7
 
 SOLVING FOR HEAD 
                                                   Max.-Head-Change                         Max.-Flux-Residual
  Residual-Control   Outer-Iter.   Inner-Iter.     Column Row Layer    Maximum-Head-Change  Column Row Layer    Maximum-Flux-Residual          L2-NORM 
          0                 1           2             3    2     1       0.1886155917E-02       3    2    1         0.9885015919E-01      0.1780183086E+00
          0                 2           2             3    2     1      -0.1834716811E-03       3    2    1        -0.9885025566E-02      0.1780179771E-01
          0                 3           1             3    2     1       0.1249373990E-04       3    2    1         0.6919520021E-03      0.1246121832E-02

    ------------------------------------------------
       NWT REQUIRED            3 OUTER ITERATIONS 
       AND A TOTAL OF          5 INNER ITERATIONS.
    ------------------------------------------------

 NO OUTPUT CONTROL FOR STRESS PERIOD   12   TIME STEP    8
 
 SOLVING FOR HEAD 
                                                   Max.-Head-Change                         Max.-Flux-Residual
  Residual-Control   Outer-Iter.   Inner-Iter.     Column Row Layer    Maximum-Head-Change  Column Row Layer    Maximum-Flux-Residual          L2-NORM 
          0                 1           2             3    2     1       0.1867357803E-02       3    2    1         0.9785900141E-01      0.1767676048E+00
          0                 2           2             3    2     1      -0.1816431341E-03       3    2    1        -0.9785909586E-02      0.1767673518E-01
          0                 3           1             3    2     1       0.1236922254E-04       3    2    1         0.6850138715E-03      0.1237369292E-02

    ------------------------------------------------
       NWT REQUIRED            3 OUTER ITERATIONS 
       AND A TOTAL OF          5 INNER ITERATIONS.
    ------------------------------------------------

 NO OUTPUT CONTROL FOR STRESS PERIOD   12   TIME STEP    9
 
 SOLVING FOR HEAD 
                                                   Max.-Head-Change                         Max.-Flux-Residual
  Residual-Control   Outer-Iter.   Inner-Iter.     Column Row Layer    Maximum-Head-Change  Column Row Layer    Maximum-Flux-Residual          L2-NORM 
          0                 1           2             3    2     1       0.1848873220E-02       3    2    1         0.9688433814E-01      0.1755698398E+00
          0                 2           2             3    2     1      -0.1798450855E-03       3    2    1        -0.9688443070E-02      0.1755693269E-01
          0                 3           1             3    2     1       0.1224678223E-04       3    2    1         0.6781912279E-03      0.1228977287E-02

    ------------------------------------------------
       NWT REQUIRED            3 OUTER ITERATIONS 
       AND A TOTAL OF          5 INNER ITERATIONS.
    ------------------------------------------------

 NO OUTPUT CONTROL FOR STRESS PERIOD   12   TIME STEP   10
 
 SOLVING FOR HEAD 
                                                   Max.-Head-Change                         Max.-Flux-Residual
  Residual-Control   Outer-Iter.   Inner-Iter.     Column Row Layer    Maximum-Head-Change  Column Row Layer    Maximum-Flux-Residual          L2-NORM 
          0                 1           2             3    2     1       0.1830695492E-02       3    2    1         0.9592593108E-01      0.1744096916E+00
          0                 2           2             3    2     1      -0.1780768856E-03       3    2    1        -0.9592602203E-02      0.1744094376E-01
          0                 3           1             3    2     1       0.1212637399E-04       3    2    1         0.6714823423E-03      0.1220858374E-02

    ------------------------------------------------
       NWT REQUIRED            3 OUTER ITERATIONS 
       AND A TOTAL OF          5 INNER ITERATIONS.
    ------------------------------------------------

 NO OUTPUT CONTROL FOR STRESS PERIOD   12   TIME STEP   11
 
 SOLVING FOR HEAD 
                                                   Max.-Head-Change                         Max.-Flux-Residual
  Residual-Control   Outer-Iter.   Inner-Iter.     Column Row Layer    Maximum-Head-Change  Column Row Layer    Maximum-Flux-Residual          L2-NORM 
          0                 1           2             3    2     1       0.1812820232E-02       3    2    1         0.9498343414E-01      0.1732912597E+00
          0                 2           2             3    2     1      -0.1763381075E-03       3    2    1        -0.9498352314E-02      0.1732910104E-01
          0                 3           1             3    2     1       0.1200796990E-04       3    2    1         0.6648848611E-03      0.1213040281E-02

    ------------------------------------------------
       NWT REQUIRED            3 OUTER ITERATIONS 
       AND A TOTAL OF          5 INNER ITERATIONS.
    ------------------------------------------------

 NO OUTPUT CONTROL FOR STRESS PERIOD   12   TIME STEP   12
 
 SOLVING FOR HEAD 
                                                   Max.-Head-Change                         Max.-Flux-Residual
  Residual-Control   Outer-Iter.   Inner-Iter.     Column Row Layer    Maximum-Head-Change  Column Row Layer    Maximum-Flux-Residual          L2-NORM 
          0                 1           2             3    2     1       0.1795154397E-02       3    2    1         0.9405208750E-01      0.1722115876E+00
          0                 2           2             3    2     1      -0.1746197010E-03       3    2    1        -0.9405217478E-02      0.1722113559E-01
          0                 3           1             3    2     1       0.1189095319E-04       3    2    1         0.6583654371E-03      0.1205480687E-02

    ------------------------------------------------
       NWT REQUIRED            3 OUTER ITERATIONS 
       AND A TOTAL OF          5 INNER ITERATIONS.
    ------------------------------------------------

 NO OUTPUT CONTROL FOR STRESS PERIOD   12   TIME STEP   13
 
 SOLVING FOR HEAD 
                                                   Max.-Head-Change                         Max.-Flux-Residual
  Residual-Control   Outer-Iter.   Inner-Iter.     Column Row Layer    Maximum-Head-Change  Column Row Layer    Maximum-Flux-Residual          L2-NORM 
          0                 1           2             3    2     1       0.1777868159E-02       3    2    1         0.9314066411E-01      0.1711675398E+00
          0                 2           2             3    2     1      -0.1729382191E-03       3    2    1        -0.9314074984E-02      0.1711672629E-01
          0                 3           1             3    2     1       0.1177645043E-04       3    2    1         0.6519854554E-03      0.1198170263E-02

    ------------------------------------------------
       NWT REQUIRED            3 OUTER ITERATIONS 
       AND A TOTAL OF          5 INNER ITERATIONS.
    ------------------------------------------------

 NO OUTPUT CONTROL FOR STRESS PERIOD   12   TIME STEP   14
 
 SOLVING FOR HEAD 
                                                   Max.-Head-Change                         Max.-Flux-Residual
  Residual-Control   Outer-Iter.   Inner-Iter.     Column Row Layer    Maximum-Head-Change  Column Row Layer    Maximum-Flux-Residual          L2-NORM 
          0                 1           2             3    2     1       0.1760781918E-02       3    2    1         0.9223985751E-01      0.1701571120E+00
          0                 2           2             3    2     1      -0.1712761913E-03       3    2    1        -0.9223994163E-02      0.1701568397E-01
          0                 3           1             3    2     1       0.1166327256E-04       3    2    1         0.6456797994E-03      0.1191091690E-02

    ------------------------------------------------
       NWT REQUIRED            3 OUTER ITERATIONS 
       AND A TOTAL OF          5 INNER ITERATIONS.
    ------------------------------------------------

 NO OUTPUT CONTROL FOR STRESS PERIOD   12   TIME STEP   15
 
 SOLVING FOR HEAD 
                                                   Max.-Head-Change                         Max.-Flux-Residual
  Residual-Control   Outer-Iter.   Inner-Iter.     Column Row Layer    Maximum-Head-Change  Column Row Layer    Maximum-Flux-Residual          L2-NORM 
          0                 1           2             3    2     1       0.1743978370E-02       3    2    1         0.9135395305E-01      0.1691817834E+00
          0                 2           2             3    2     1      -0.1696416619E-03       3    2    1        -0.9135403565E-02      0.1691814587E-01
          0                 3           1             3    2     1       0.1155196701E-04       3    2    1         0.6394784442E-03      0.1184266194E-02

    ------------------------------------------------
       NWT REQUIRED            3 OUTER ITERATIONS 
       AND A TOTAL OF          5 INNER ITERATIONS.
    ------------------------------------------------

 NO OUTPUT CONTROL FOR STRESS PERIOD   12   TIME STEP   16
 
 SOLVING FOR HEAD 
                                                   Max.-Head-Change                         Max.-Flux-Residual
  Residual-Control   Outer-Iter.   Inner-Iter.     Column Row Layer    Maximum-Head-Change  Column Row Layer    Maximum-Flux-Residual          L2-NORM 
          0                 1           2             3    2     1       0.1727452081E-02       3    2    1         0.9048270589E-01      0.1682412111E+00
          0                 2           2             3    2     1      -0.1680341022E-03       3    2    1        -0.9048278690E-02      0.1683191847E-01
          0                 3           1             3    2     1       0.1144249829E-04       3    2    1         0.6333796983E-03      0.1178186435E-02

    ------------------------------------------------
       NWT REQUIRED            3 OUTER ITERATIONS 
       AND A TOTAL OF          5 INNER ITERATIONS.
    ------------------------------------------------

 NO OUTPUT CONTROL FOR STRESS PERIOD   12   TIME STEP   17
 
 SOLVING FOR HEAD 
                                                   Max.-Head-Change                         Max.-Flux-Residual
  Residual-Control   Outer-Iter.   Inner-Iter.     Column Row Layer    Maximum-Head-Change  Column Row Layer    Maximum-Flux-Residual          L2-NORM 
          0                 1           2             3    2     1       0.1711198507E-02       3    2    1         0.8962583439E-01      0.1673263769E+00
          0                 2           2             3    2     1      -0.1664530705E-03       3    2    1        -0.8962591387E-02      0.1673260693E-01
          0                 3           1             3    2     1       0.1133483609E-04       3    2    1         0.6273815986E-03      0.1171282831E-02

    ------------------------------------------------
       NWT REQUIRED            3 OUTER ITERATIONS 
       AND A TOTAL OF          5 INNER ITERATIONS.
    ------------------------------------------------

 NO OUTPUT CONTROL FOR STRESS PERIOD   12   TIME STEP   18
 
 SOLVING FOR HEAD 
                                                   Max.-Head-Change                         Max.-Flux-Residual
  Residual-Control   Outer-Iter.   Inner-Iter.     Column Row Layer    Maximum-Head-Change  Column Row Layer    Maximum-Flux-Residual          L2-NORM 
          0                 1           2             3    2     1       0.1695213852E-02       3    2    1         0.8878310282E-01      0.1664388434E+00
          0                 2           2             3    2     1      -0.1648981969E-03       3    2    1        -0.8878318079E-02      0.1664385677E-01
          0                 3           1             3    2     1       0.1122895462E-04       3    2    1         0.6214824373E-03      0.1165062451E-02

    ------------------------------------------------
       NWT REQUIRED            3 OUTER ITERATIONS 
       AND A TOTAL OF          5 INNER ITERATIONS.
    ------------------------------------------------

 NO OUTPUT CONTROL FOR STRESS PERIOD   12   TIME STEP   19
 
 SOLVING FOR HEAD 
                                                   Max.-Head-Change                         Max.-Flux-Residual
  Residual-Control   Outer-Iter.   Inner-Iter.     Column Row Layer    Maximum-Head-Change  Column Row Layer    Maximum-Flux-Residual          L2-NORM 
          0                 1           2             3    2     1       0.1679405677E-02       3    2    1         0.8794978171E-01      0.1655845922E+00
          0                 2           2             3    2     1      -0.1633604905E-03       3    2    1        -0.8794985823E-02      0.1655842762E-01
          0                 3           1             3    2     1       0.1112424279E-04       3    2    1         0.6156491917E-03      0.1159090863E-02

    ------------------------------------------------
       NWT REQUIRED            3 OUTER ITERATIONS 
       AND A TOTAL OF          5 INNER ITERATIONS.
    ------------------------------------------------

 NO OUTPUT CONTROL FOR STRESS PERIOD   12   TIME STEP   20
 
 SOLVING FOR HEAD 
                                                   Max.-Head-Change                         Max.-Flux-Residual
  Residual-Control   Outer-Iter.   Inner-Iter.     Column Row Layer    Maximum-Head-Change  Column Row Layer    Maximum-Flux-Residual          L2-NORM 
          0                 1           2             3    2     1       0.1663943964E-02       3    2    1         0.8713467645E-01      0.1647545250E+00
          0                 2           2             3    2     1      -0.1618564851E-03       3    2    1        -0.8713475148E-02      0.1647542281E-01
          0                 3           1             3    2     1       0.1102182551E-04       3    2    1         0.6099434465E-03      0.1153274246E-02

    ------------------------------------------------
       NWT REQUIRED            3 OUTER ITERATIONS 
       AND A TOTAL OF          5 INNER ITERATIONS.
    ------------------------------------------------

 NO OUTPUT CONTROL FOR STRESS PERIOD   12   TIME STEP   21
 
 SOLVING FOR HEAD 
                                                   Max.-Head-Change                         Max.-Flux-Residual
  Residual-Control   Outer-Iter.   Inner-Iter.     Column Row Layer    Maximum-Head-Change  Column Row Layer    Maximum-Flux-Residual          L2-NORM 
          0                 1           2             3    2     1       0.1648649825E-02       3    2    1         0.8632846921E-01      0.1639541777E+00
          0                 2           2             3    2     1      -0.1603687806E-03       3    2    1        -0.8632854298E-02      0.1639539053E-01
          0                 3           1             3    2     1       0.1092051846E-04       3    2    1         0.6042999794E-03      0.1147684106E-02

    ------------------------------------------------
       NWT REQUIRED            3 OUTER ITERATIONS 
       AND A TOTAL OF          5 INNER ITERATIONS.
    ------------------------------------------------

 NO OUTPUT CONTROL FOR STRESS PERIOD   12   TIME STEP   22
 
 SOLVING FOR HEAD 
                                                   Max.-Head-Change                         Max.-Flux-Residual
  Residual-Control   Outer-Iter.   Inner-Iter.     Column Row Layer    Maximum-Head-Change  Column Row Layer    Maximum-Flux-Residual          L2-NORM 
          0                 1           2             3    2     1       0.1633606826E-02       3    2    1         0.8553548339E-01      0.1631718956E+00
          0                 2           2             3    2     1      -0.1589055051E-03       3    2    1        -0.8553555572E-02      0.1631715609E-01
          0                 3           1             3    2     1       0.1082087499E-04       3    2    1         0.5987490838E-03      0.1142198615E-02

    ------------------------------------------------
       NWT REQUIRED            3 OUTER ITERATIONS 
       AND A TOTAL OF          5 INNER ITERATIONS.
    ------------------------------------------------

 NO OUTPUT CONTROL FOR STRESS PERIOD   12   TIME STEP   23
 
 SOLVING FOR HEAD 
                                                   Max.-Head-Change                         Max.-Flux-Residual
  Residual-Control   Outer-Iter.   Inner-Iter.     Column Row Layer    Maximum-Head-Change  Column Row Layer    Maximum-Flux-Residual          L2-NORM 
          0                 1           2             3    2     1       0.1618897075E-02       3    2    1         0.8476005189E-01      0.1624231479E+00
          0                 2           2             3    2     1      -0.1574746453E-03       3    2    1        -0.8476012287E-02      0.1624228269E-01
          0                 3           1             3    2     1       0.1072343850E-04       3    2    1         0.5933210425E-03      0.1136960157E-02

    ------------------------------------------------
       NWT REQUIRED            3 OUTER ITERATIONS 
       AND A TOTAL OF          5 INNER ITERATIONS.
    ------------------------------------------------

 NO OUTPUT CONTROL FOR STRESS PERIOD   12   TIME STEP   24
 
 SOLVING FOR HEAD 
                                                   Max.-Head-Change                         Max.-Flux-Residual
  Residual-Control   Outer-Iter.   Inner-Iter.     Column Row Layer    Maximum-Head-Change  Column Row Layer    Maximum-Flux-Residual          L2-NORM 
          0                 1           2             2    1     1       0.1615222168E-02       3    2    1         0.8399283301E-01      0.1616930810E+00
          0                 2           2             2    1     1      -0.1571171691E-03       3    2    1        -0.8399290271E-02      0.1616928120E-01
          0                 3           1             2    1     1       0.1069909618E-04       3    2    1         0.5879505050E-03      0.1131846397E-02

    ------------------------------------------------
       NWT REQUIRED            3 OUTER ITERATIONS 
       AND A TOTAL OF          5 INNER ITERATIONS.
    ------------------------------------------------

 NO OUTPUT CONTROL FOR STRESS PERIOD   12   TIME STEP   25
 
 SOLVING FOR HEAD 
                                                   Max.-Head-Change                         Max.-Flux-Residual
  Residual-Control   Outer-Iter.   Inner-Iter.     Column Row Layer    Maximum-Head-Change  Column Row Layer    Maximum-Flux-Residual          L2-NORM 
          0                 1           2             2    1     1       0.1613240770E-02       2    1    1         0.8376130988E-01      0.1609797584E+00
          0                 2           2             2    1     1      -0.1569244320E-03       2    1    1        -0.8376137395E-02      0.1609794564E-01
          0                 3           1             2    1     1       0.1068597123E-04       2    1    1         0.5863298075E-03      0.1126852627E-02

    ------------------------------------------------
       NWT REQUIRED            3 OUTER ITERATIONS 
       AND A TOTAL OF          5 INNER ITERATIONS.
    ------------------------------------------------

 NO OUTPUT CONTROL FOR STRESS PERIOD   12   TIME STEP   26
 
 SOLVING FOR HEAD 
                                                   Max.-Head-Change                         Max.-Flux-Residual
  Residual-Control   Outer-Iter.   Inner-Iter.     Column Row Layer    Maximum-Head-Change  Column Row Layer    Maximum-Flux-Residual          L2-NORM 
          0                 1           2             2    1     1       0.1611275298E-02       2    1    1         0.8365857670E-01      0.1602877888E+00
          0                 2           2             2    1     1      -0.1567332446E-03       2    1    1        -0.8365864025E-02      0.1602895432E-01
          0                 3           1             2    1     1       0.1067295230E-04       2    1    1         0.5856106881E-03      0.1122027868E-02

    ------------------------------------------------
       NWT REQUIRED            3 OUTER ITERATIONS 
       AND A TOTAL OF          5 INNER ITERATIONS.
    ------------------------------------------------

 NO OUTPUT CONTROL FOR STRESS PERIOD   12   TIME STEP   27
 
 SOLVING FOR HEAD 
                                                   Max.-Head-Change                         Max.-Flux-Residual
  Residual-Control   Outer-Iter.   Inner-Iter.     Column Row Layer    Maximum-Head-Change  Column Row Layer    Maximum-Flux-Residual          L2-NORM 
          0                 1           2             2    1     1       0.1609325435E-02       2    1    1         0.8355666923E-01      0.1596217305E+00
          0                 2           2             2    1     1      -0.1565435749E-03       2    1    1        -0.8355673212E-02      0.1596214453E-01
          0                 3           1             2    1     1       0.1066003633E-04       2    1    1         0.5848973090E-03      0.1117353088E-02

    ------------------------------------------------
       NWT REQUIRED            3 OUTER ITERATIONS 
       AND A TOTAL OF          5 INNER ITERATIONS.
    ------------------------------------------------

 NO OUTPUT CONTROL FOR STRESS PERIOD   12   TIME STEP   28
 
 SOLVING FOR HEAD 
                                                   Max.-Head-Change                         Max.-Flux-Residual
  Residual-Control   Outer-Iter.   Inner-Iter.     Column Row Layer    Maximum-Head-Change  Column Row Layer    Maximum-Flux-Residual          L2-NORM 
          0                 1           2             2    1     1       0.1607391093E-02       2    1    1         0.8345557111E-01      0.1589735431E+00
          0                 2           2             2    1     1      -0.1563554152E-03       2    1    1        -0.8345563358E-02      0.1589732654E-01
          0                 3           1             2    1     1       0.1064722308E-04       2    1    1         0.5841896065E-03      0.1112804331E-02

    ------------------------------------------------
       NWT REQUIRED            3 OUTER ITERATIONS 
       AND A TOTAL OF          5 INNER ITERATIONS.
    ------------------------------------------------

 NO OUTPUT CONTROL FOR STRESS PERIOD   12   TIME STEP   29
 
 SOLVING FOR HEAD 
                                                   Max.-Head-Change                         Max.-Flux-Residual
  Residual-Control   Outer-Iter.   Inner-Iter.     Column Row Layer    Maximum-Head-Change  Column Row Layer    Maximum-Flux-Residual          L2-NORM 
          0                 1           2             2    1     1       0.1605319217E-02       2    1    1         0.8335527768E-01      0.1574482891E+00
          0                 2           2             2    1     1      -0.1561538832E-03       2    1    1        -0.8335534314E-02      0.1574480215E-01
          0                 3           1             2    1     1       0.1063350005E-04       2    1    1         0.5834875960E-03      0.1102136941E-02

    ------------------------------------------------
       NWT REQUIRED            3 OUTER ITERATIONS 
       AND A TOTAL OF          5 INNER ITERATIONS.
    ------------------------------------------------

 NO OUTPUT CONTROL FOR STRESS PERIOD   12   TIME STEP   30



 STREAM LISTING     PERIOD     12   STEP       30

 LAYER ROW COL. STREAM  RCH.  FLOW INTO     FLOW TO   FLOW OUT OF   OVRLND.     DIRECT     STREAM       STREAM     STREAM     STREAM   STREAMBED  STREAMBED
                SEG.NO.  NO.  STRM. RCH.    AQUIFER    STRM. RCH.    RUNOFF     PRECIP       ET          HEAD       DEPTH      WIDTH   CONDCTNC.   GRADIENT

   1    1    1     1     1    1.9081E+01  2.1479E-01   1.8866E+01  0.000E+00  0.000E+00  0.000E+00  1.09413E+03  1.083E+00  1.169E+01  5.260E-02  1.361E+00
   1    2    2     1     2    1.8866E+01  3.3136E-01   1.8535E+01  0.000E+00  0.000E+00  0.000E+00  1.08914E+03  1.079E+00  1.161E+01  8.124E-02  1.360E+00
   1    3    3     1     3    1.8535E+01  2.8134E-01   1.8253E+01  0.000E+00  0.000E+00  0.000E+00  1.08349E+03  1.074E+00  1.151E+01  6.906E-02  1.358E+00
   1    3    4     1     4    1.8253E+01  2.5804E-01   1.7995E+01  0.000E+00  0.000E+00  0.000E+00  1.07848E+03  1.069E+00  1.143E+01  6.342E-02  1.356E+00
   1    4    5     2     1    1.5995E+01  3.0564E-01   1.5690E+01  0.000E+00  0.000E+00  0.000E+00  1.07285E+03  9.184E-01  1.200E+01  7.800E-02  1.306E+00
   1    5    6     2     2    1.5690E+01  2.3454E-01   1.5455E+01  0.000E+00  0.000E+00  0.000E+00  1.06742E+03  9.090E-01  1.200E+01  6.000E-02  1.303E+00
   1    6    6     2     3    1.5455E+01  2.3405E-01   1.5221E+01  0.000E+00  0.000E+00  0.000E+00  1.06269E+03  9.008E-01  1.200E+01  6.000E-02  1.300E+00
   1    7    6     2     4    1.5221E+01  2.3355E-01   1.4987E+01  0.000E+00  0.000E+00  0.000E+00  1.05797E+03  8.925E-01  1.200E+01  6.000E-02  1.297E+00
   1    8    6     2     5    1.4987E+01  2.3305E-01   1.4754E+01  0.000E+00  0.000E+00  0.000E+00  1.05324E+03  8.842E-01  1.200E+01  6.000E-02  1.295E+00
   1    3    5     3     1    2.0000E+00  2.8252E-01   1.7175E+00  0.000E+00  0.000E+00  0.000E+00  1.07555E+03  1.909E+00  9.636E+00  7.227E-02  1.955E+00
   1    3    6     3     2    1.7175E+00  2.4905E-01   1.4684E+00  0.000E+00  0.000E+00  0.000E+00  1.07264E+03  1.727E+00  8.909E+00  6.682E-02  1.864E+00
   1    3    7     3     3    1.4684E+00  1.9718E-01   1.2712E+00  0.000E+00  0.000E+00  0.000E+00  1.06987E+03  1.555E+00  8.218E+00  5.547E-02  1.777E+00
   1    4    8     3     4    1.2712E+00  2.2567E-01   1.0456E+00  0.000E+00  0.000E+00  0.000E+00  1.06682E+03  1.364E+00  7.455E+00  6.709E-02  1.682E+00
   1    5    8     3     5    1.0456E+00  1.5790E-01   8.8768E-01  0.000E+00  0.000E+00  0.000E+00  1.06362E+03  1.164E+00  6.655E+00  4.991E-02  1.582E+00
   1    6    8     3     6    8.8768E-01  5.5980E-02   8.3170E-01  0.000E+00  0.000E+00  0.000E+00  1.06158E+03  1.036E+00  6.145E+00  1.844E-02  1.518E+00
   1    5   10     4     1    1.0000E+01  9.0919E-02   9.9091E+00  0.000E+00  0.000E+00  0.000E+00  1.07836E+03  6.368E-01  1.000E+01  2.500E-02  1.212E+00
   1    5    9     4     2    9.9091E+00  1.8158E-01   9.7275E+00  0.000E+00  0.000E+00  0.000E+00  1.07154E+03  6.315E-01  1.000E+01  5.000E-02  1.211E+00
   1    6    8     4     3    9.7275E+00  1.2689E-01   9.6006E+00  0.000E+00  0.000E+00  0.000E+00  1.06381E+03  6.256E-01  1.000E+01  3.500E-02  1.209E+00
   1    6    8     5     1    1.0432E+01  2.2686E-01   1.0205E+01  0.000E+00  0.000E+00  0.000E+00  1.05868E+03  6.790E-01  1.542E+01  6.166E-02  1.226E+00
   1    7    7     5     2    1.0205E+01  2.7894E-01   9.9265E+00  0.000E+00  0.000E+00  0.000E+00  1.05417E+03  6.732E-01  1.519E+01  7.594E-02  1.224E+00
   1    8    7     5     3    9.9265E+00  1.9221E-01   9.7343E+00  0.000E+00  0.000E+00  0.000E+00  1.04992E+03  6.676E-01  1.497E+01  5.241E-02  1.223E+00
   1    8    6     5     4    9.7343E+00  1.3577E-01   9.5985E+00  0.000E+00  0.000E+00  0.000E+00  1.04691E+03  6.637E-01  1.482E+01  3.706E-02  1.221E+00
   1    9    6     6     1    9.5985E+00  2.2097E-01   9.3776E+00  0.000E+00  0.000E+00  0.000E+00  1.04341E+03  6.828E-01  1.200E+01  6.000E-02  1.228E+00
   1   10    7     6     2    9.3776E+00  2.2039E-01   9.1572E+00  0.000E+00  0.000E+00  0.000E+00  1.03885E+03  6.732E-01  1.200E+01  6.000E-02  1.224E+00
   1   11    7     6     3    9.1572E+00  2.1981E-01   8.9374E+00  0.000E+00  0.000E+00  0.000E+00  1.03430E+03  6.636E-01  1.200E+01  6.000E-02  1.221E+00
   1   12    7     6     4    8.9374E+00  2.1923E-01   8.7181E+00  0.000E+00  0.000E+00  0.000E+00  1.02974E+03  6.539E-01  1.200E+01  6.000E-02  1.218E+00
   1   13    7     6     5    8.7181E+00 -1.1234E-01   8.8305E+00  0.000E+00  0.000E+00  0.000E+00  1.02656E+03  6.515E-01  1.200E+01  2.400E-01 -1.560E-01
   1   14    9     7     1    1.5000E+02  1.3400E+00   1.4866E+02  0.000E+00  0.000E+00  0.000E+00  1.03987E+03  2.288E+00  5.529E+01  5.593E-01  7.986E-01
   1   13    8     7     2    1.4866E+02  1.8443E+00   1.4682E+02  0.000E+00  0.000E+00  0.000E+00  1.03478E+03  2.279E+00  5.526E+01  6.148E-01  1.000E+00
   1   13    7     7     3    1.4682E+02  1.4860E+00   1.4533E+02  0.000E+00  0.000E+00  0.000E+00  1.02969E+03  2.270E+00  5.522E+01  5.584E-01  8.870E-01
   1   13    6     8     1    1.5416E+02  8.3777E-01   1.5332E+02  0.000E+00  0.000E+00  0.000E+00  1.02472E+03  2.843E+00  4.122E+01  4.201E-01  6.648E-01
   1   13    5     8     2    1.5332E+02  1.0826E-01   1.5321E+02  0.000E+00  0.000E+00  0.000E+00  1.01846E+03  2.840E+00  4.118E+01  4.196E-01  8.600E-02
   1   13    4     8     3    1.5321E+02 -2.6524E+00   1.5587E+02  0.000E+00  0.000E+00  0.000E+00  1.01222E+03  2.849E+00  4.130E+01  4.209E+00 -2.101E-01
   1   13    3     8     4    1.5587E+02 -3.7373E+00   1.5960E+02  0.000E+00  0.000E+00  0.000E+00  1.00600E+03  2.870E+00  4.162E+01  4.241E+00 -2.937E-01
   1   13    2     8     5    1.5960E+02 -2.5977E+00   1.6220E+02  0.000E+00  0.000E+00  0.000E+00  9.99767E+02  2.892E+00  4.193E+01  4.273E+00 -2.026E-01
   1   13    1     8     6    1.6220E+02 -1.9805E+00   1.6418E+02  0.000E+00  0.000E+00  0.000E+00  9.94782E+02  2.907E+00  4.216E+01  2.577E+00 -2.561E-01
   1    8    6     9     1    1.4754E+01  0.0000E+00   1.4754E+01  0.000E+00  0.000E+00  0.000E+00  1.08161E+03  2.862E+00  4.000E+00  0.000E+00  1.954E+00
   1    8    5     9     2    1.4754E+01  0.0000E+00   1.4754E+01  0.000E+00  0.000E+00  0.000E+00  1.08111E+03  2.862E+00  4.000E+00  0.000E+00  1.954E+00





UNSATURATED ZONE PACKAGE VOLUMETRIC BUDGET FOR  TIME STEP    30 STRESS PERIOD   12
  ------------------------------------------------------------------------------



     CUMULATIVE VOLUMES      L**3       RATES FOR THIS TIME STEP      L**3/T
     ------------------                 ------------------------

           IN:                                      IN:
           ---                                      ---
        INFILTRATION =    24591397.6002          INFILTRATION =           0.8475

          OUT:                                     OUT:
          ----                                     ----
              UZF ET =    24177939.5349                UZF ET =           0.7500
        UZF RECHARGE =       73224.0000          UZF RECHARGE =       0.0000E+00

            IN - OUT =      340234.0652              IN - OUT =       9.7500E-02

          STORAGE:                                 STORAGE:
          --------                                 --------
      STORAGE CHANGE =      340234.1404        STORAGE CHANGE =       9.7500E-02

 PERCENT DISCREPANCY IS DIFFERENCE BETWEEN IN-OUT MINUS CHANGE IN STORAGE
 DIVIDED BY THE AVERAGE OF IN AND OUT TIMES 100

 PERCENT DISCREPANCY =           0.00     PERCENT DISCREPANCY =           0.00






1
  VOLUMETRIC BUDGET FOR ENTIRE MODEL AT END OF TIME STEP   30, STRESS PERIOD  12
  ------------------------------------------------------------------------------

     CUMULATIVE VOLUMES      L**3       RATES FOR THIS TIME STEP      L**3/T
     ------------------                 ------------------------

           IN:                                      IN:
           ---                                      ---
             STORAGE     =    14568331.0000               STORAGE     =           0.3621
       CONSTANT HEAD     =           0.0000         CONSTANT HEAD     =           0.0000
     HEAD DEP BOUNDS     =     8294692.5000       HEAD DEP BOUNDS     =           0.2860
      STREAM LEAKAGE     =   343128416.0000        STREAM LEAKAGE     =          11.2246
        UZF RECHARGE     =       73223.9531          UZF RECHARGE     =           0.0000
               GW ET     =           0.0000                 GW ET     =           0.0000
     SURFACE LEAKAGE     =           0.0000       SURFACE LEAKAGE     =           0.0000

                TOTAL IN =   366064640.0000                  TOTAL IN =          11.8728

          OUT:                                     OUT:
          ----                                     ----
             STORAGE     =    35601904.0000               STORAGE     =           0.5057
       CONSTANT HEAD     =           0.0000         CONSTANT HEAD     =           0.0000
     HEAD DEP BOUNDS     =     8326133.5000       HEAD DEP BOUNDS     =           0.2869
      STREAM LEAKAGE     =   322142464.0000        STREAM LEAKAGE     =          11.0802
        UZF RECHARGE     =           0.0000          UZF RECHARGE     =           0.0000
               GW ET     =           0.0000                 GW ET     =           0.0000
     SURFACE LEAKAGE     =           0.0000       SURFACE LEAKAGE     =           0.0000

               TOTAL OUT =   366070496.0000                 TOTAL OUT =          11.8728

                IN - OUT =       -5856.0000                  IN - OUT =      -3.7193E-05

     PERCENT DISCREPANCY =          -0.00         PERCENT DISCREPANCY =          -0.00






         TIME SUMMARY AT END OF TIME STEP   30 IN STRESS PERIOD   12
                    SECONDS     MINUTES      HOURS       DAYS        YEARS
                    -----------------------------------------------------------
   TIME STEP LENGTH  87667.      1461.1      24.352      1.0147     2.77799E-03
 STRESS PERIOD TIME 2.63000E+06  43833.      730.56      30.440     8.33397E-02
         TOTAL TIME 2.90163E+07 4.83606E+05  8060.1      335.84     0.91947    
1
1
                            STRESS PERIOD NO.   13, LENGTH =   2630000.    
                            -----------------------------------------------

                              NUMBER OF TIME STEPS =    30

                               MULTIPLIER FOR DELT =     1.000

                            INITIAL TIME STEP SIZE =   87666.66    

 REUSING NON-PARAMETER GHB CELLS FROM LAST STRESS PERIOD

      2 GHB CELLS

 REUSING STREAM SEGMENT DATA FROM LAST STRESS PERIOD



            AREAL INFILTRATION RATE
 READING ON UNIT   19 WITH FORMAT: (FREE)              

            1           2           3           4           5           6           7           8           9          10
 ........................................................................................................................
   1   1.0000E-10  2.0000E-10   0.000       0.000       0.000       0.000       0.000       0.000       0.000       0.000    
   2   2.0000E-10  1.0000E-10  2.0000E-10   0.000       0.000      8.0000E-10  8.0000E-10  5.0000E-10   0.000       0.000    
   3    0.000      5.0000E-10  1.0000E-10  1.0000E-10  8.0000E-10  8.0000E-10  5.0000E-10  5.0000E-10   0.000       0.000    
   4   8.0000E-10  5.0000E-10  1.0000E-10  1.0000E-10  1.0000E-10  1.0000E-10  1.0000E-10  1.0000E-10  2.0000E-10   0.000    
   5   8.0000E-10  5.0000E-10  1.0000E-10  1.0000E-10  1.0000E-10  1.0000E-10  1.0000E-10  1.0000E-10  1.0000E-10  1.0000E-10
   6   8.0000E-10  5.0000E-10  5.0000E-10  2.0000E-10  2.0000E-10  1.0000E-10  1.0000E-10  1.0000E-10  1.0000E-10  5.0000E-10
   7   8.0000E-10  5.0000E-10  5.0000E-10  2.0000E-10  2.0000E-10  1.0000E-10  1.0000E-10  2.0000E-10  2.0000E-10   0.000    
   8    0.000      5.0000E-10  5.0000E-10  2.0000E-10  2.0000E-10  1.0000E-10  1.0000E-10  2.0000E-10  5.0000E-10   0.000    
   9    0.000      5.0000E-10  5.0000E-10  2.0000E-10  2.0000E-10  1.0000E-10  1.0000E-10  2.0000E-10  5.0000E-10   0.000    
  10    0.000      5.0000E-10  5.0000E-10  2.0000E-10  2.0000E-10  1.0000E-10  1.0000E-10  2.0000E-10  5.0000E-10  8.0000E-10
  11    0.000      1.0000E-10  1.0000E-10  1.0000E-10  1.0000E-10  1.0000E-10  1.0000E-10  2.0000E-10  5.0000E-10   0.000    
  12   1.0000E-10  1.0000E-10  1.0000E-10  1.0000E-10  1.0000E-10  1.0000E-10  1.0000E-10  1.0000E-10  2.0000E-10   0.000    
  13   1.0000E-10  1.0000E-10  2.0000E-10  2.0000E-10  2.0000E-10  2.0000E-10  2.0000E-10  1.0000E-10  1.0000E-10   0.000    
  14    0.000      2.0000E-10  5.0000E-10  5.0000E-10  5.0000E-10  5.0000E-10  5.0000E-10  2.0000E-10  1.0000E-10   0.000    
  15    0.000       0.000      8.0000E-10  8.0000E-10  8.0000E-10  8.0000E-10   0.000       0.000       0.000       0.000    

                  ET RATE =  5.000000E-10

 USING ET EXTINCTION DEPTH FROM PREVIOUS STRESS PERIOD. CURRENT PERIOD IS:      13

 USING EXTINCTION WATER CONTENT FROM PREVIOUS STRESS PERIOD. CURRENT PERIOD IS:      13

 USING AIR ENTRY PRESSURE FROM PREVIOUS STRESS PERIOD. CURRENT PERIOD IS:      13

 USING ROOT PRESSURE HEAD FROM PREVIOUS STRESS PERIOD. CURRENT PERIOD IS:      13

 USING ROOT ACTIVITY FROM PREVIOUS STRESS PERIOD. CURRENT PERIOD IS:      13
 
 SOLVING FOR HEAD 
                                                   Max.-Head-Change                         Max.-Flux-Residual
  Residual-Control   Outer-Iter.   Inner-Iter.     Column Row Layer    Maximum-Head-Change  Column Row Layer    Maximum-Flux-Residual          L2-NORM 
          0                 1           2             2    1     1       0.1602580256E-02       2    1    1         0.8324785068E-01      0.1566474836E+00
          0                 2           2             2    1     1      -0.1558874774E-03       2    1    1        -0.8324792950E-02      0.1566472286E-01
          0                 3           1             2    1     1       0.1061535810E-04       2    1    1         0.5827356848E-03      0.1096531829E-02

    ------------------------------------------------
       NWT REQUIRED            3 OUTER ITERATIONS 
       AND A TOTAL OF          5 INNER ITERATIONS.
    ------------------------------------------------

 NO OUTPUT CONTROL FOR STRESS PERIOD   13   TIME STEP    1
 
 SOLVING FOR HEAD 
                                                   Max.-Head-Change                         Max.-Flux-Residual
  Residual-Control   Outer-Iter.   Inner-Iter.     Column Row Layer    Maximum-Head-Change  Column Row Layer    Maximum-Flux-Residual          L2-NORM 
          0                 1           2             2    1     1       0.1599862074E-02       2    1    1         0.8310582712E-01      0.1555400368E+00
          0                 2           2             2    1     1      -0.1556230717E-03       2    1    1        -0.8310590540E-02      0.1555397416E-01
          0                 3           1             2    1     1       0.1059735342E-04       2    1    1         0.5817415320E-03      0.1088776275E-02

    ------------------------------------------------
       NWT REQUIRED            3 OUTER ITERATIONS 
       AND A TOTAL OF          5 INNER ITERATIONS.
    ------------------------------------------------

 NO OUTPUT CONTROL FOR STRESS PERIOD   13   TIME STEP    2
 
 SOLVING FOR HEAD 
                                                   Max.-Head-Change                         Max.-Flux-Residual
  Residual-Control   Outer-Iter.   Inner-Iter.     Column Row Layer    Maximum-Head-Change  Column Row Layer    Maximum-Flux-Residual          L2-NORM 
          0                 1           2             2    1     1       0.1597143519E-02       2    1    1         0.8296379078E-01      0.1544624594E+00
          0                 2           2             2    1     1      -0.1553586293E-03       2    1    1        -0.8296386838E-02      0.1544622081E-01
          0                 3           1             2    1     1       0.1057934518E-04       2    1    1         0.5807472502E-03      0.1081233143E-02

    ------------------------------------------------
       NWT REQUIRED            3 OUTER ITERATIONS 
       AND A TOTAL OF          5 INNER ITERATIONS.
    ------------------------------------------------

 NO OUTPUT CONTROL FOR STRESS PERIOD   13   TIME STEP    3
 
 SOLVING FOR HEAD 
                                                   Max.-Head-Change                         Max.-Flux-Residual
  Residual-Control   Outer-Iter.   Inner-Iter.     Column Row Layer    Maximum-Head-Change  Column Row Layer    Maximum-Flux-Residual          L2-NORM 
          0                 1           2             2    1     1       0.1594466662E-02       2    1    1         0.8282393806E-01      0.1534176449E+00
          0                 2           2             2    1     1      -0.1550982427E-03       2    1    1        -0.8282401482E-02      0.1534172698E-01
          0                 3           1             2    1     1       0.1056161410E-04       2    1    1         0.5797682756E-03      0.1073914876E-02

    ------------------------------------------------
       NWT REQUIRED            3 OUTER ITERATIONS 
       AND A TOTAL OF          5 INNER ITERATIONS.
    ------------------------------------------------

 NO OUTPUT CONTROL FOR STRESS PERIOD   13   TIME STEP    4
 
 SOLVING FOR HEAD 
                                                   Max.-Head-Change                         Max.-Flux-Residual
  Residual-Control   Outer-Iter.   Inner-Iter.     Column Row Layer    Maximum-Head-Change  Column Row Layer    Maximum-Flux-Residual          L2-NORM 
          0                 1           2             2    1     1       0.1591810093E-02       2    1    1         0.8268514588E-01      0.1524067767E+00
          0                 2           2             2    1     1      -0.1548398302E-03       2    1    1        -0.8268522215E-02      0.1524065457E-01
          0                 3           1             2    1     1       0.1054401720E-04       2    1    1         0.5787967303E-03      0.1066840076E-02

    ------------------------------------------------
       NWT REQUIRED            3 OUTER ITERATIONS 
       AND A TOTAL OF          5 INNER ITERATIONS.
    ------------------------------------------------

 NO OUTPUT CONTROL FOR STRESS PERIOD   13   TIME STEP    5
 
 SOLVING FOR HEAD 
                                                   Max.-Head-Change                         Max.-Flux-Residual
  Residual-Control   Outer-Iter.   Inner-Iter.     Column Row Layer    Maximum-Head-Change  Column Row Layer    Maximum-Flux-Residual          L2-NORM 
          0                 1           2             2    1     1       0.1589173549E-02       2    1    1         0.8254740555E-01      0.1514273549E+00
          0                 2           2             2    1     1      -0.1545833653E-03       2    1    1        -0.8254748111E-02      0.1514269608E-01
          0                 3           1             2    1     1       0.1052655284E-04       2    1    1         0.5778325396E-03      0.1059982939E-02

    ------------------------------------------------
       NWT REQUIRED            3 OUTER ITERATIONS 
       AND A TOTAL OF          5 INNER ITERATIONS.
    ------------------------------------------------

 NO OUTPUT CONTROL FOR STRESS PERIOD   13   TIME STEP    6
 
 SOLVING FOR HEAD 
                                                   Max.-Head-Change                         Max.-Flux-Residual
  Residual-Control   Outer-Iter.   Inner-Iter.     Column Row Layer    Maximum-Head-Change  Column Row Layer    Maximum-Flux-Residual          L2-NORM 
          0                 1           2             2    1     1       0.1586556774E-02       2    1    1         0.8241070355E-01      0.1504780224E+00
          0                 2           2             2    1     1      -0.1543288235E-03       2    1    1        -0.8241077855E-02      0.1504776901E-01
          0                 3           1             2    1     1       0.1050921960E-04       2    1    1         0.5768756233E-03      0.1053337490E-02

    ------------------------------------------------
       NWT REQUIRED            3 OUTER ITERATIONS 
       AND A TOTAL OF          5 INNER ITERATIONS.
    ------------------------------------------------

 NO OUTPUT CONTROL FOR STRESS PERIOD   13   TIME STEP    7
 
 SOLVING FOR HEAD 
                                                   Max.-Head-Change                         Max.-Flux-Residual
  Residual-Control   Outer-Iter.   Inner-Iter.     Column Row Layer    Maximum-Head-Change  Column Row Layer    Maximum-Flux-Residual          L2-NORM 
          0                 1           2             2    1     1       0.1583959514E-02       2    1    1         0.8227502656E-01      0.1495534376E+00
          0                 2           2             2    1     1      -0.1540761802E-03       2    1    1        -0.8227510091E-02      0.1495531581E-01
          0                 3           1             2    1     1       0.1049201559E-04       2    1    1         0.5759258929E-03      0.1046870017E-02

    ------------------------------------------------
       NWT REQUIRED            3 OUTER ITERATIONS 
       AND A TOTAL OF          5 INNER ITERATIONS.
    ------------------------------------------------

 NO OUTPUT CONTROL FOR STRESS PERIOD   13   TIME STEP    8
 
 SOLVING FOR HEAD 
                                                   Max.-Head-Change                         Max.-Flux-Residual
  Residual-Control   Outer-Iter.   Inner-Iter.     Column Row Layer    Maximum-Head-Change  Column Row Layer    Maximum-Flux-Residual          L2-NORM 
          0                 1           2             2    1     1       0.1581381521E-02       2    1    1         0.8214036143E-01      0.1486619955E+00
          0                 2           2             2    1     1      -0.1538254113E-03       2    1    1        -0.8214043530E-02      0.1486616838E-01
          0                 3           1             2    1     1       0.1047493961E-04       2    1    1         0.5749832495E-03      0.1040621940E-02

    ------------------------------------------------
       NWT REQUIRED            3 OUTER ITERATIONS 
       AND A TOTAL OF          5 INNER ITERATIONS.
    ------------------------------------------------

 NO OUTPUT CONTROL FOR STRESS PERIOD   13   TIME STEP    9
 
 SOLVING FOR HEAD 
                                                   Max.-Head-Change                         Max.-Flux-Residual
  Residual-Control   Outer-Iter.   Inner-Iter.     Column Row Layer    Maximum-Head-Change  Column Row Layer    Maximum-Flux-Residual          L2-NORM 
          0                 1           2             2    1     1       0.1578801349E-02       2    1    1         0.8200559344E-01      0.1477899361E+00
          0                 2           2             2    1     1      -0.1535744292E-03       2    1    1        -0.8200566659E-02      0.1477896003E-01
          0                 3           1             2    1     1       0.1045784778E-04       2    1    1         0.5740398217E-03      0.1034524782E-02

    ------------------------------------------------
       NWT REQUIRED            3 OUTER ITERATIONS 
       AND A TOTAL OF          5 INNER ITERATIONS.
    ------------------------------------------------

 NO OUTPUT CONTROL FOR STRESS PERIOD   13   TIME STEP   10
 
 SOLVING FOR HEAD 
                                                   Max.-Head-Change                         Max.-Flux-Residual
  Residual-Control   Outer-Iter.   Inner-Iter.     Column Row Layer    Maximum-Head-Change  Column Row Layer    Maximum-Flux-Residual          L2-NORM 
          0                 1           2             2    1     1       0.1576261205E-02       2    1    1         0.8187291605E-01      0.1469483483E+00
          0                 2           2             2    1     1      -0.1533273416E-03       2    1    1        -0.8187298857E-02      0.1469480357E-01
          0                 3           1             2    1     1       0.1044102267E-04       2    1    1         0.5731110947E-03      0.1028634047E-02

    ------------------------------------------------
       NWT REQUIRED            3 OUTER ITERATIONS 
       AND A TOTAL OF          5 INNER ITERATIONS.
    ------------------------------------------------

 NO OUTPUT CONTROL FOR STRESS PERIOD   13   TIME STEP   11
 
 SOLVING FOR HEAD 
                                                   Max.-Head-Change                         Max.-Flux-Residual
  Residual-Control   Outer-Iter.   Inner-Iter.     Column Row Layer    Maximum-Head-Change  Column Row Layer    Maximum-Flux-Residual          L2-NORM 
          0                 1           2             2    1     1       0.1573739725E-02       2    1    1         0.8174121228E-01      0.1461374007E+00
          0                 2           2             2    1     1      -0.1530820697E-03       2    1    1        -0.8174128433E-02      0.1461372337E-01
          0                 3           1             2    1     1       0.1042432017E-04       2    1    1         0.5721891575E-03      0.1022961651E-02

    ------------------------------------------------
       NWT REQUIRED            3 OUTER ITERATIONS 
       AND A TOTAL OF          5 INNER ITERATIONS.
    ------------------------------------------------

 NO OUTPUT CONTROL FOR STRESS PERIOD   13   TIME STEP   12
 
 SOLVING FOR HEAD 
                                                   Max.-Head-Change                         Max.-Flux-Residual
  Residual-Control   Outer-Iter.   Inner-Iter.     Column Row Layer    Maximum-Head-Change  Column Row Layer    Maximum-Flux-Residual          L2-NORM 
          0                 1           2             2    1     1       0.1571236549E-02       2    1    1         0.8161047623E-01      0.1453421639E+00
          0                 2           2             2    1     1      -0.1528385781E-03       2    1    1        -0.8161054774E-02      0.1453418340E-01
          0                 3           1             2    1     1       0.1040773955E-04       2    1    1         0.5712740059E-03      0.1017390426E-02

    ------------------------------------------------
       NWT REQUIRED            3 OUTER ITERATIONS 
       AND A TOTAL OF          5 INNER ITERATIONS.
    ------------------------------------------------

 NO OUTPUT CONTROL FOR STRESS PERIOD   13   TIME STEP   13
 
 SOLVING FOR HEAD 
                                                   Max.-Head-Change                         Max.-Flux-Residual
  Residual-Control   Outer-Iter.   Inner-Iter.     Column Row Layer    Maximum-Head-Change  Column Row Layer    Maximum-Flux-Residual          L2-NORM 
          0                 1           2             2    1     1       0.1568730340E-02       2    1    1         0.8147958723E-01      0.1445702135E+00
          0                 2           2             2    1     1      -0.1525947915E-03       2    1    1        -0.8147965819E-02      0.1445699514E-01
          0                 3           1             2    1     1       0.1039113858E-04       2    1    1         0.5703577789E-03      0.1011983537E-02

    ------------------------------------------------
       NWT REQUIRED            3 OUTER ITERATIONS 
       AND A TOTAL OF          5 INNER ITERATIONS.
    ------------------------------------------------

 NO OUTPUT CONTROL FOR STRESS PERIOD   13   TIME STEP   14
 
 SOLVING FOR HEAD 
                                                   Max.-Head-Change                         Max.-Flux-Residual
  Residual-Control   Outer-Iter.   Inner-Iter.     Column Row Layer    Maximum-Head-Change  Column Row Layer    Maximum-Flux-Residual          L2-NORM 
          0                 1           2             2    1     1       0.1566263228E-02       2    1    1         0.8135074495E-01      0.1438199751E+00
          0                 2           2             2    1     1      -0.1523548080E-03       2    1    1        -0.8135081535E-02      0.1438196750E-01
          0                 3           1             2    1     1       0.1037479700E-04       2    1    1         0.5694558901E-03      0.1006733625E-02

    ------------------------------------------------
       NWT REQUIRED            3 OUTER ITERATIONS 
       AND A TOTAL OF          5 INNER ITERATIONS.
    ------------------------------------------------

 NO OUTPUT CONTROL FOR STRESS PERIOD   13   TIME STEP   15
 
 SOLVING FOR HEAD 
                                                   Max.-Head-Change                         Max.-Flux-Residual
  Residual-Control   Outer-Iter.   Inner-Iter.     Column Row Layer    Maximum-Head-Change  Column Row Layer    Maximum-Flux-Residual          L2-NORM 
          0                 1           2             2    1     1       0.1563813832E-02       2    1    1         0.8122282783E-01      0.1430924243E+00
          0                 2           2             2    1     1      -0.1521165474E-03       2    1    1        -0.8122289754E-02      0.1430920332E-01
          0                 3           1             2    1     1       0.1035857210E-04       2    1    1         0.5685604634E-03      0.1001659996E-02

    ------------------------------------------------
       NWT REQUIRED            3 OUTER ITERATIONS 
       AND A TOTAL OF          5 INNER ITERATIONS.
    ------------------------------------------------

 NO OUTPUT CONTROL FOR STRESS PERIOD   13   TIME STEP   16
 
 SOLVING FOR HEAD 
                                                   Max.-Head-Change                         Max.-Flux-Residual
  Residual-Control   Outer-Iter.   Inner-Iter.     Column Row Layer    Maximum-Head-Change  Column Row Layer    Maximum-Flux-Residual          L2-NORM 
          0                 1           2             2    1     1       0.1561360726E-02       2    1    1         0.8109472716E-01      0.1423864866E+00
          0                 2           2             2    1     1      -0.1518779265E-03       2    1    1        -0.8109479655E-02      0.1423861596E-01
          0                 3           1             2    1     1       0.1034232258E-04       2    1    1         0.5676637472E-03      0.9966995800E-03

    ------------------------------------------------
       NWT REQUIRED            3 OUTER ITERATIONS 
       AND A TOTAL OF          5 INNER ITERATIONS.
    ------------------------------------------------

 NO OUTPUT CONTROL FOR STRESS PERIOD   13   TIME STEP   17
 
 SOLVING FOR HEAD 
                                                   Max.-Head-Change                         Max.-Flux-Residual
  Residual-Control   Outer-Iter.   Inner-Iter.     Column Row Layer    Maximum-Head-Change  Column Row Layer    Maximum-Flux-Residual          L2-NORM 
          0                 1           2             2    1     1       0.1558946151E-02       2    1    1         0.8096863834E-01      0.1417004484E+00
          0                 2           2             2    1     1      -0.1516430536E-03       2    1    1        -0.8096870718E-02      0.1417001141E-01
          0                 3           1             2    1     1       0.1032632915E-04       2    1    1         0.5667811342E-03      0.9919024129E-03

    ------------------------------------------------
       NWT REQUIRED            3 OUTER ITERATIONS 
       AND A TOTAL OF          5 INNER ITERATIONS.
    ------------------------------------------------

 NO OUTPUT CONTROL FOR STRESS PERIOD   13   TIME STEP   18
 
 SOLVING FOR HEAD 
                                                   Max.-Head-Change                         Max.-Flux-Residual
  Residual-Control   Outer-Iter.   Inner-Iter.     Column Row Layer    Maximum-Head-Change  Column Row Layer    Maximum-Flux-Residual          L2-NORM 
          0                 1           2             2    1     1       0.1556548540E-02       2    1    1         0.8084344522E-01      0.1410310864E+00
          0                 2           2             2    1     1      -0.1514098306E-03       2    1    1        -0.8084351363E-02      0.1410307550E-01
          0                 3           1             2    1     1       0.1031044719E-04       2    1    1         0.5659047640E-03      0.9872098312E-03

    ------------------------------------------------
       NWT REQUIRED            3 OUTER ITERATIONS 
       AND A TOTAL OF          5 INNER ITERATIONS.
    ------------------------------------------------

 NO OUTPUT CONTROL FOR STRESS PERIOD   13   TIME STEP   19
 
 SOLVING FOR HEAD 
                                                   Max.-Head-Change                         Max.-Flux-Residual
  Residual-Control   Outer-Iter.   Inner-Iter.     Column Row Layer    Maximum-Head-Change  Column Row Layer    Maximum-Flux-Residual          L2-NORM 
          0                 1           2             2    1     1       0.1554146597E-02       2    1    1         0.8071802937E-01      0.1403835682E+00
          0                 2           2             2    1     1      -0.1511761860E-03       2    1    1        -0.8071809703E-02      0.1403831801E-01
          0                 3           1             2    1     1       0.1029453707E-04       2    1    1         0.5650268553E-03      0.9826646244E-03

    ------------------------------------------------
       NWT REQUIRED            3 OUTER ITERATIONS 
       AND A TOTAL OF          5 INNER ITERATIONS.
    ------------------------------------------------

 NO OUTPUT CONTROL FOR STRESS PERIOD   13   TIME STEP   20
 
 SOLVING FOR HEAD 
                                                   Max.-Head-Change                         Max.-Flux-Residual
  Residual-Control   Outer-Iter.   Inner-Iter.     Column Row Layer    Maximum-Head-Change  Column Row Layer    Maximum-Flux-Residual          L2-NORM 
          0                 1           2             2    1     1       0.1551782553E-02       2    1    1         0.8059459347E-01      0.1397515812E+00
          0                 2           2             2    1     1      -0.1509462286E-03       2    1    1        -0.8059466076E-02      0.1397513633E-01
          0                 3           1             2    1     1       0.1027887805E-04       2    1    1         0.5641628150E-03      0.9783761053E-03

    ------------------------------------------------
       NWT REQUIRED            3 OUTER ITERATIONS 
       AND A TOTAL OF          5 INNER ITERATIONS.
    ------------------------------------------------

 NO OUTPUT CONTROL FOR STRESS PERIOD   13   TIME STEP   21
 
 SOLVING FOR HEAD 
                                                   Max.-Head-Change                         Max.-Flux-Residual
  Residual-Control   Outer-Iter.   Inner-Iter.     Column Row Layer    Maximum-Head-Change  Column Row Layer    Maximum-Flux-Residual          L2-NORM 
          0                 1           2             2    1     1       0.1549413732E-02       2    1    1         0.8047091794E-01      0.1391376309E+00
          0                 2           2             2    1     1      -0.1507158059E-03       2    1    1        -0.8047098460E-02      0.1391372570E-01
          0                 3           1             2    1     1       0.1026318685E-04       2    1    1         0.5632970742E-03      0.9739643921E-03

    ------------------------------------------------
       NWT REQUIRED            3 OUTER ITERATIONS 
       AND A TOTAL OF          5 INNER ITERATIONS.
    ------------------------------------------------

 NO OUTPUT CONTROL FOR STRESS PERIOD   13   TIME STEP   22
 
 SOLVING FOR HEAD 
                                                   Max.-Head-Change                         Max.-Flux-Residual
  Residual-Control   Outer-Iter.   Inner-Iter.     Column Row Layer    Maximum-Head-Change  Column Row Layer    Maximum-Flux-Residual          L2-NORM 
          0                 1           2             2    1     1       0.1547082501E-02       2    1    1         0.8034919954E-01      0.1385404861E+00
          0                 2           2             2    1     1      -0.1504890401E-03       2    1    1        -0.8034926569E-02      0.1385402320E-01
          0                 3           1             2    1     1       0.1024774534E-04       2    1    1         0.5624450584E-03      0.9697785783E-03

    ------------------------------------------------
       NWT REQUIRED            3 OUTER ITERATIONS 
       AND A TOTAL OF          5 INNER ITERATIONS.
    ------------------------------------------------

 NO OUTPUT CONTROL FOR STRESS PERIOD   13   TIME STEP   23
 
 SOLVING FOR HEAD 
                                                   Max.-Head-Change                         Max.-Flux-Residual
  Residual-Control   Outer-Iter.   Inner-Iter.     Column Row Layer    Maximum-Head-Change  Column Row Layer    Maximum-Flux-Residual          L2-NORM 
          0                 1           2             2    1     1       0.1544746089E-02       2    1    1         0.8022722524E-01      0.1379592661E+00
          0                 2           2             2    1     1      -0.1502617701E-03       2    1    1        -0.8022729106E-02      0.1379589045E-01
          0                 3           1             2    1     1       0.1023226880E-04       2    1    1         0.5615912173E-03      0.9657070476E-03

    ------------------------------------------------
       NWT REQUIRED            3 OUTER ITERATIONS 
       AND A TOTAL OF          5 INNER ITERATIONS.
    ------------------------------------------------

 NO OUTPUT CONTROL FOR STRESS PERIOD   13   TIME STEP   24
 
 SOLVING FOR HEAD 
                                                   Max.-Head-Change                         Max.-Flux-Residual
  Residual-Control   Outer-Iter.   Inner-Iter.     Column Row Layer    Maximum-Head-Change  Column Row Layer    Maximum-Flux-Residual          L2-NORM 
          0                 1           2             2    1     1       0.1542446774E-02       2    1    1         0.8010718725E-01      0.1373949754E+00
          0                 2           2             2    1     1      -0.1500381087E-03       2    1    1        -0.8010725256E-02      0.1373946728E-01
          0                 3           1             2    1     1       0.1021703840E-04       2    1    1         0.5607509424E-03      0.9617645483E-03

    ------------------------------------------------
       NWT REQUIRED            3 OUTER ITERATIONS 
       AND A TOTAL OF          5 INNER ITERATIONS.
    ------------------------------------------------

 NO OUTPUT CONTROL FOR STRESS PERIOD   13   TIME STEP   25
 
 SOLVING FOR HEAD 
                                                   Max.-Head-Change                         Max.-Flux-Residual
  Residual-Control   Outer-Iter.   Inner-Iter.     Column Row Layer    Maximum-Head-Change  Column Row Layer    Maximum-Flux-Residual          L2-NORM 
          0                 1           2             2    1     1       0.1540141911E-02       2    1    1         0.7998686763E-01      0.1368443916E+00
          0                 2           2             2    1     1      -0.1498139076E-03       2    1    1        -0.7998693234E-02      0.1368440912E-01
          0                 3           1             2    1     1       0.1020177132E-04       2    1    1         0.5599087203E-03      0.9579068005E-03

    ------------------------------------------------
       NWT REQUIRED            3 OUTER ITERATIONS 
       AND A TOTAL OF          5 INNER ITERATIONS.
    ------------------------------------------------

 NO OUTPUT CONTROL FOR STRESS PERIOD   13   TIME STEP   26
 
 SOLVING FOR HEAD 
                                                   Max.-Head-Change                         Max.-Flux-Residual
  Residual-Control   Outer-Iter.   Inner-Iter.     Column Row Layer    Maximum-Head-Change  Column Row Layer    Maximum-Flux-Residual          L2-NORM 
          0                 1           2             2    1     1       0.1537873859E-02       2    1    1         0.7986846557E-01      0.1363091693E+00
          0                 2           2             2    1     1      -0.1495932868E-03       2    1    1        -0.7986852982E-02      0.1363088702E-01
          0                 3           1             2    1     1       0.1018674730E-04       2    1    1         0.5590798705E-03      0.9541582568E-03

    ------------------------------------------------
       NWT REQUIRED            3 OUTER ITERATIONS 
       AND A TOTAL OF          5 INNER ITERATIONS.
    ------------------------------------------------

 NO OUTPUT CONTROL FOR STRESS PERIOD   13   TIME STEP   27
 
 SOLVING FOR HEAD 
                                                   Max.-Head-Change                         Max.-Flux-Residual
  Residual-Control   Outer-Iter.   Inner-Iter.     Column Row Layer    Maximum-Head-Change  Column Row Layer    Maximum-Flux-Residual          L2-NORM 
          0                 1           2             2    1     1       0.1535599850E-02       2    1    1         0.7974976682E-01      0.1357884818E+00
          0                 2           2             2    1     1      -0.1493720874E-03       2    1    1        -0.7974983056E-02      0.1357881809E-01
          0                 3           1             2    1     1       0.1017168494E-04       2    1    1         0.5582490046E-03      0.9505129567E-03

    ------------------------------------------------
       NWT REQUIRED            3 OUTER ITERATIONS 
       AND A TOTAL OF          5 INNER ITERATIONS.
    ------------------------------------------------

 NO OUTPUT CONTROL FOR STRESS PERIOD   13   TIME STEP   28
 
 SOLVING FOR HEAD 
                                                   Max.-Head-Change                         Max.-Flux-Residual
  Residual-Control   Outer-Iter.   Inner-Iter.     Column Row Layer    Maximum-Head-Change  Column Row Layer    Maximum-Flux-Residual          L2-NORM 
          0                 1           2             2    1     1       0.1533362278E-02       2    1    1         0.7963296458E-01      0.1352805939E+00
          0                 2           2             2    1     1      -0.1491544321E-03       2    1    1        -0.7963302801E-02      0.1352803055E-01
          0                 3           1             2    1     1       0.1015686328E-04       2    1    1         0.5574313800E-03      0.9469702392E-03

    ------------------------------------------------
       NWT REQUIRED            3 OUTER ITERATIONS 
       AND A TOTAL OF          5 INNER ITERATIONS.
    ------------------------------------------------

 NO OUTPUT CONTROL FOR STRESS PERIOD   13   TIME STEP   29
 
 SOLVING FOR HEAD 
                                                   Max.-Head-Change                         Max.-Flux-Residual
  Residual-Control   Outer-Iter.   Inner-Iter.     Column Row Layer    Maximum-Head-Change  Column Row Layer    Maximum-Flux-Residual          L2-NORM 
          0                 1           2             2    1     1       0.1531118379E-02       2    1    1         0.7951584613E-01      0.1347888969E+00
          0                 2           2             2    1     1      -0.1489361612E-03       2    1    1        -0.7951590917E-02      0.1347885204E-01
          0                 3           1             2    1     1       0.1014199972E-04       2    1    1         0.5566115352E-03      0.9435166600E-03

    ------------------------------------------------
       NWT REQUIRED            3 OUTER ITERATIONS 
       AND A TOTAL OF          5 INNER ITERATIONS.
    ------------------------------------------------

 NO OUTPUT CONTROL FOR STRESS PERIOD   13   TIME STEP   30



 STREAM LISTING     PERIOD     13   STEP       30

 LAYER ROW COL. STREAM  RCH.  FLOW INTO     FLOW TO   FLOW OUT OF   OVRLND.     DIRECT     STREAM       STREAM     STREAM     STREAM   STREAMBED  STREAMBED
                SEG.NO.  NO.  STRM. RCH.    AQUIFER    STRM. RCH.    RUNOFF     PRECIP       ET          HEAD       DEPTH      WIDTH   CONDCTNC.   GRADIENT

   1    1    1     1     1    1.7250E+01  2.0269E-01   1.7047E+01  0.000E+00  0.000E+00  0.000E+00  1.09410E+03  1.052E+00  1.112E+01  5.002E-02  1.351E+00
   1    2    2     1     2    1.7047E+01  3.1258E-01   1.6735E+01  0.000E+00  0.000E+00  0.000E+00  1.08911E+03  1.047E+00  1.103E+01  7.723E-02  1.349E+00
   1    3    3     1     3    1.6735E+01  2.6529E-01   1.6469E+01  0.000E+00  0.000E+00  0.000E+00  1.08346E+03  1.042E+00  1.094E+01  6.563E-02  1.347E+00
   1    3    4     1     4    1.6469E+01  2.4324E-01   1.6226E+01  0.000E+00  0.000E+00  0.000E+00  1.07845E+03  1.038E+00  1.085E+01  6.024E-02  1.346E+00
   1    4    5     2     1    1.4226E+01  3.0073E-01   1.3925E+01  0.000E+00  0.000E+00  0.000E+00  1.07279E+03  8.555E-01  1.200E+01  7.800E-02  1.285E+00
   1    5    6     2     2    1.3925E+01  2.3075E-01   1.3695E+01  0.000E+00  0.000E+00  0.000E+00  1.06736E+03  8.458E-01  1.200E+01  6.000E-02  1.282E+00
   1    6    6     2     3    1.3695E+01  2.3024E-01   1.3464E+01  0.000E+00  0.000E+00  0.000E+00  1.06263E+03  8.373E-01  1.200E+01  6.000E-02  1.279E+00
   1    7    6     2     4    1.3464E+01  2.2972E-01   1.3235E+01  0.000E+00  0.000E+00  0.000E+00  1.05790E+03  8.287E-01  1.200E+01  6.000E-02  1.276E+00
   1    8    6     2     5    1.3235E+01  2.2921E-01   1.3005E+01  0.000E+00  0.000E+00  0.000E+00  1.05318E+03  8.202E-01  1.200E+01  6.000E-02  1.273E+00
   1    3    5     3     1    2.0000E+00  2.8252E-01   1.7175E+00  0.000E+00  0.000E+00  0.000E+00  1.07555E+03  1.909E+00  9.636E+00  7.227E-02  1.955E+00
   1    3    6     3     2    1.7175E+00  2.4905E-01   1.4684E+00  0.000E+00  0.000E+00  0.000E+00  1.07264E+03  1.727E+00  8.909E+00  6.682E-02  1.864E+00
   1    3    7     3     3    1.4684E+00  1.9718E-01   1.2712E+00  0.000E+00  0.000E+00  0.000E+00  1.06987E+03  1.555E+00  8.218E+00  5.547E-02  1.777E+00
   1    4    8     3     4    1.2712E+00  2.2567E-01   1.0456E+00  0.000E+00  0.000E+00  0.000E+00  1.06682E+03  1.364E+00  7.455E+00  6.709E-02  1.682E+00
   1    5    8     3     5    1.0456E+00  1.5790E-01   8.8768E-01  0.000E+00  0.000E+00  0.000E+00  1.06362E+03  1.164E+00  6.655E+00  4.991E-02  1.582E+00
   1    6    8     3     6    8.8768E-01  5.5980E-02   8.3170E-01  0.000E+00  0.000E+00  0.000E+00  1.06158E+03  1.036E+00  6.145E+00  1.844E-02  1.518E+00
   1    5   10     4     1    1.0000E+01  9.0919E-02   9.9091E+00  0.000E+00  0.000E+00  0.000E+00  1.07836E+03  6.368E-01  1.000E+01  2.500E-02  1.212E+00
   1    5    9     4     2    9.9091E+00  1.8158E-01   9.7275E+00  0.000E+00  0.000E+00  0.000E+00  1.07154E+03  6.315E-01  1.000E+01  5.000E-02  1.211E+00
   1    6    8     4     3    9.7275E+00  1.2689E-01   9.6006E+00  0.000E+00  0.000E+00  0.000E+00  1.06381E+03  6.256E-01  1.000E+01  3.500E-02  1.209E+00
   1    6    8     5     1    1.0432E+01  2.2686E-01   1.0205E+01  0.000E+00  0.000E+00  0.000E+00  1.05868E+03  6.790E-01  1.542E+01  6.166E-02  1.226E+00
   1    7    7     5     2    1.0205E+01  2.7894E-01   9.9265E+00  0.000E+00  0.000E+00  0.000E+00  1.05417E+03  6.732E-01  1.519E+01  7.594E-02  1.224E+00
   1    8    7     5     3    9.9265E+00  1.9221E-01   9.7343E+00  0.000E+00  0.000E+00  0.000E+00  1.04992E+03  6.676E-01  1.497E+01  5.241E-02  1.223E+00
   1    8    6     5     4    9.7343E+00  1.3577E-01   9.5985E+00  0.000E+00  0.000E+00  0.000E+00  1.04691E+03  6.637E-01  1.482E+01  3.706E-02  1.221E+00
   1    9    6     6     1    9.5985E+00  2.2097E-01   9.3776E+00  0.000E+00  0.000E+00  0.000E+00  1.04341E+03  6.828E-01  1.200E+01  6.000E-02  1.228E+00
   1   10    7     6     2    9.3776E+00  2.2039E-01   9.1572E+00  0.000E+00  0.000E+00  0.000E+00  1.03885E+03  6.732E-01  1.200E+01  6.000E-02  1.224E+00
   1   11    7     6     3    9.1572E+00  2.1981E-01   8.9374E+00  0.000E+00  0.000E+00  0.000E+00  1.03430E+03  6.636E-01  1.200E+01  6.000E-02  1.221E+00
   1   12    7     6     4    8.9374E+00  2.1923E-01   8.7181E+00  0.000E+00  0.000E+00  0.000E+00  1.02974E+03  6.539E-01  1.200E+01  6.000E-02  1.218E+00
   1   13    7     6     5    8.7181E+00 -1.1215E-01   8.8303E+00  0.000E+00  0.000E+00  0.000E+00  1.02656E+03  6.515E-01  1.200E+01  2.400E-01 -1.558E-01
   1   14    9     7     1    1.5000E+02  1.3404E+00   1.4866E+02  0.000E+00  0.000E+00  0.000E+00  1.03987E+03  2.288E+00  5.529E+01  5.593E-01  7.989E-01
   1   13    8     7     2    1.4866E+02  1.8448E+00   1.4681E+02  0.000E+00  0.000E+00  0.000E+00  1.03478E+03  2.279E+00  5.526E+01  6.148E-01  1.000E+00
   1   13    7     7     3    1.4681E+02  1.4865E+00   1.4533E+02  0.000E+00  0.000E+00  0.000E+00  1.02969E+03  2.270E+00  5.522E+01  5.584E-01  8.873E-01
   1   13    6     8     1    1.5416E+02  8.3823E-01   1.5332E+02  0.000E+00  0.000E+00  0.000E+00  1.02472E+03  2.843E+00  4.122E+01  4.201E-01  6.651E-01
   1   13    5     8     2    1.5332E+02  1.0867E-01   1.5321E+02  0.000E+00  0.000E+00  0.000E+00  1.01846E+03  2.840E+00  4.118E+01  4.196E-01  8.633E-02
   1   13    4     8     3    1.5321E+02 -2.6511E+00   1.5586E+02  0.000E+00  0.000E+00  0.000E+00  1.01222E+03  2.848E+00  4.130E+01  4.209E+00 -2.100E-01
   1   13    3     8     4    1.5586E+02 -3.7364E+00   1.5960E+02  0.000E+00  0.000E+00  0.000E+00  1.00600E+03  2.870E+00  4.162E+01  4.241E+00 -2.936E-01
   1   13    2     8     5    1.5960E+02 -2.5973E+00   1.6220E+02  0.000E+00  0.000E+00  0.000E+00  9.99767E+02  2.892E+00  4.193E+01  4.273E+00 -2.026E-01
   1   13    1     8     6    1.6220E+02 -1.9804E+00   1.6418E+02  0.000E+00  0.000E+00  0.000E+00  9.94782E+02  2.907E+00  4.216E+01  2.577E+00 -2.561E-01
   1    8    6     9     1    1.3005E+01  0.0000E+00   1.3005E+01  0.000E+00  0.000E+00  0.000E+00  1.08140E+03  2.653E+00  4.000E+00  0.000E+00  1.884E+00
   1    8    5     9     2    1.3005E+01  0.0000E+00   1.3005E+01  0.000E+00  0.000E+00  0.000E+00  1.08090E+03  2.653E+00  4.000E+00  0.000E+00  1.884E+00





UNSATURATED ZONE PACKAGE VOLUMETRIC BUDGET FOR  TIME STEP    30 STRESS PERIOD   13
  ------------------------------------------------------------------------------



     CUMULATIVE VOLUMES      L**3       RATES FOR THIS TIME STEP      L**3/T
     ------------------                 ------------------------

           IN:                                      IN:
           ---                                      ---
        INFILTRATION =    26820322.4729          INFILTRATION =           0.8475

          OUT:                                     OUT:
          ----                                     ----
              UZF ET =    26150439.4008                UZF ET =           0.7500
        UZF RECHARGE =       73224.0000          UZF RECHARGE =       0.0000E+00

            IN - OUT =      596659.0721              IN - OUT =       9.7500E-02

          STORAGE:                                 STORAGE:
          --------                                 --------
      STORAGE CHANGE =      596659.1709        STORAGE CHANGE =       9.7500E-02

 PERCENT DISCREPANCY IS DIFFERENCE BETWEEN IN-OUT MINUS CHANGE IN STORAGE
 DIVIDED BY THE AVERAGE OF IN AND OUT TIMES 100

 PERCENT DISCREPANCY =           0.00     PERCENT DISCREPANCY =           0.00






1
  VOLUMETRIC BUDGET FOR ENTIRE MODEL AT END OF TIME STEP   30, STRESS PERIOD  13
  ------------------------------------------------------------------------------

     CUMULATIVE VOLUMES      L**3       RATES FOR THIS TIME STEP      L**3/T
     ------------------                 ------------------------

           IN:                                      IN:
           ---                                      ---
             STORAGE     =    15542460.0000               STORAGE     =           0.3392
       CONSTANT HEAD     =           0.0000         CONSTANT HEAD     =           0.0000
     HEAD DEP BOUNDS     =     9047030.0000       HEAD DEP BOUNDS     =           0.2861
      STREAM LEAKAGE     =   372436832.0000        STREAM LEAKAGE     =          11.1449
        UZF RECHARGE     =       73223.9531          UZF RECHARGE     =           0.0000
               GW ET     =           0.0000                 GW ET     =           0.0000
     SURFACE LEAKAGE     =           0.0000       SURFACE LEAKAGE     =           0.0000

                TOTAL IN =   397099552.0000                  TOTAL IN =          11.7702

          OUT:                                     OUT:
          ----                                     ----
             STORAGE     =    36745200.0000               STORAGE     =           0.4059
       CONSTANT HEAD     =           0.0000         CONSTANT HEAD     =           0.0000
     HEAD DEP BOUNDS     =     9080753.0000       HEAD DEP BOUNDS     =           0.2869
      STREAM LEAKAGE     =   351279488.0000        STREAM LEAKAGE     =          11.0774
        UZF RECHARGE     =           0.0000          UZF RECHARGE     =           0.0000
               GW ET     =           0.0000                 GW ET     =           0.0000
     SURFACE LEAKAGE     =           0.0000       SURFACE LEAKAGE     =           0.0000

               TOTAL OUT =   397105440.0000                 TOTAL OUT =          11.7702

                IN - OUT =       -5888.0000                  IN - OUT =      -1.4305E-05

     PERCENT DISCREPANCY =          -0.00         PERCENT DISCREPANCY =          -0.00






         TIME SUMMARY AT END OF TIME STEP   30 IN STRESS PERIOD   13
                    SECONDS     MINUTES      HOURS       DAYS        YEARS
                    -----------------------------------------------------------
   TIME STEP LENGTH  87667.      1461.1      24.352      1.0147     2.77799E-03
 STRESS PERIOD TIME 2.63000E+06  43833.      730.56      30.440     8.33397E-02
         TOTAL TIME 3.16463E+07 5.27439E+05  8790.6      366.28      1.0028    
1
1
                            STRESS PERIOD NO.   14, LENGTH =   2630000.    
                            -----------------------------------------------

                              NUMBER OF TIME STEPS =    30

                               MULTIPLIER FOR DELT =     1.000

                            INITIAL TIME STEP SIZE =   87666.66    

 REUSING NON-PARAMETER GHB CELLS FROM LAST STRESS PERIOD

      2 GHB CELLS

 REUSING STREAM SEGMENT DATA FROM LAST STRESS PERIOD



            AREAL INFILTRATION RATE
 READING ON UNIT   19 WITH FORMAT: (FREE)              

            1           2           3           4           5           6           7           8           9          10
 ........................................................................................................................
   1   1.0000E-10  2.0000E-10   0.000       0.000       0.000       0.000       0.000       0.000       0.000       0.000    
   2   2.0000E-10  1.0000E-10  2.0000E-10   0.000       0.000      8.0000E-10  8.0000E-10  5.0000E-10   0.000       0.000    
   3    0.000      5.0000E-10  1.0000E-10  1.0000E-10  8.0000E-10  8.0000E-10  5.0000E-10  5.0000E-10   0.000       0.000    
   4   8.0000E-10  5.0000E-10  1.0000E-10  1.0000E-10  1.0000E-10  1.0000E-10  1.0000E-10  1.0000E-10  2.0000E-10   0.000    
   5   8.0000E-10  5.0000E-10  1.0000E-10  1.0000E-10  1.0000E-10  1.0000E-10  1.0000E-10  1.0000E-10  1.0000E-10  1.0000E-10
   6   8.0000E-10  5.0000E-10  5.0000E-10  2.0000E-10  2.0000E-10  1.0000E-10  1.0000E-10  1.0000E-10  1.0000E-10  5.0000E-10
   7   8.0000E-10  5.0000E-10  5.0000E-10  2.0000E-10  2.0000E-10  1.0000E-10  1.0000E-10  2.0000E-10  2.0000E-10   0.000    
   8    0.000      5.0000E-10  5.0000E-10  2.0000E-10  2.0000E-10  1.0000E-10  1.0000E-10  2.0000E-10  5.0000E-10   0.000    
   9    0.000      5.0000E-10  5.0000E-10  2.0000E-10  2.0000E-10  1.0000E-10  1.0000E-10  2.0000E-10  5.0000E-10   0.000    
  10    0.000      5.0000E-10  5.0000E-10  2.0000E-10  2.0000E-10  1.0000E-10  1.0000E-10  2.0000E-10  5.0000E-10  8.0000E-10
  11    0.000      1.0000E-10  1.0000E-10  1.0000E-10  1.0000E-10  1.0000E-10  1.0000E-10  2.0000E-10  5.0000E-10   0.000    
  12   1.0000E-10  1.0000E-10  1.0000E-10  1.0000E-10  1.0000E-10  1.0000E-10  1.0000E-10  1.0000E-10  2.0000E-10   0.000    
  13   1.0000E-10  1.0000E-10  2.0000E-10  2.0000E-10  2.0000E-10  2.0000E-10  2.0000E-10  1.0000E-10  1.0000E-10   0.000    
  14    0.000      2.0000E-10  5.0000E-10  5.0000E-10  5.0000E-10  5.0000E-10  5.0000E-10  2.0000E-10  1.0000E-10   0.000    
  15    0.000       0.000      8.0000E-10  8.0000E-10  8.0000E-10  8.0000E-10   0.000       0.000       0.000       0.000    

                  ET RATE =  5.000000E-10

 USING ET EXTINCTION DEPTH FROM PREVIOUS STRESS PERIOD. CURRENT PERIOD IS:      14

 USING EXTINCTION WATER CONTENT FROM PREVIOUS STRESS PERIOD. CURRENT PERIOD IS:      14

 USING AIR ENTRY PRESSURE FROM PREVIOUS STRESS PERIOD. CURRENT PERIOD IS:      14

 USING ROOT PRESSURE HEAD FROM PREVIOUS STRESS PERIOD. CURRENT PERIOD IS:      14

 USING ROOT ACTIVITY FROM PREVIOUS STRESS PERIOD. CURRENT PERIOD IS:      14
 
 SOLVING FOR HEAD 
                                                   Max.-Head-Change                         Max.-Flux-Residual
  Residual-Control   Outer-Iter.   Inner-Iter.     Column Row Layer    Maximum-Head-Change  Column Row Layer    Maximum-Flux-Residual          L2-NORM 
          0                 1           2             2    1     1       0.1528461148E-02       2    1    1         0.7940060513E-01      0.1339664853E+00
          0                 2           2             2    1     1      -0.1486776969E-03       2    1    1        -0.7940067583E-02      0.1339661745E-01
          0                 3           1             2    1     1       0.1012439904E-04       2    1    1         0.5558049001E-03      0.9377997516E-03

    ------------------------------------------------
       NWT REQUIRED            3 OUTER ITERATIONS 
       AND A TOTAL OF          5 INNER ITERATIONS.
    ------------------------------------------------

 NO OUTPUT CONTROL FOR STRESS PERIOD   14   TIME STEP    1
 
 SOLVING FOR HEAD 
                                                   Max.-Head-Change                         Max.-Flux-Residual
  Residual-Control   Outer-Iter.   Inner-Iter.     Column Row Layer    Maximum-Head-Change  Column Row Layer    Maximum-Flux-Residual          L2-NORM 
          0                 1           2             2    1     1       0.1525062867E-02       2    1    1         0.7926172020E-01      0.1397410423E+00
          0                 2           2             2    1     1      -0.1483471526E-03       2    1    1        -0.7926180104E-02      0.1397407405E-01
          0                 3           1             2    1     1       0.1010188976E-04       2    1    1         0.5548327825E-03      0.9781275882E-03

    ------------------------------------------------
       NWT REQUIRED            3 OUTER ITERATIONS 
       AND A TOTAL OF          5 INNER ITERATIONS.
    ------------------------------------------------

 NO OUTPUT CONTROL FOR STRESS PERIOD   14   TIME STEP    2
 
 SOLVING FOR HEAD 
                                                   Max.-Head-Change                         Max.-Flux-Residual
  Residual-Control   Outer-Iter.   Inner-Iter.     Column Row Layer    Maximum-Head-Change  Column Row Layer    Maximum-Flux-Residual          L2-NORM 
          0                 1           2             2    1     1       0.1521687631E-02       2    1    1         0.7908551075E-01      0.1385547991E+00
          0                 2           2             2    1     1      -0.1480188332E-03       2    1    1        -0.7908559090E-02      0.1385544985E-01
          0                 3           1             2    1     1       0.1007953265E-04       2    1    1         0.5535993183E-03      0.9698802885E-03

    ------------------------------------------------
       NWT REQUIRED            3 OUTER ITERATIONS 
       AND A TOTAL OF          5 INNER ITERATIONS.
    ------------------------------------------------

 NO OUTPUT CONTROL FOR STRESS PERIOD   14   TIME STEP    3
 
 SOLVING FOR HEAD 
                                                   Max.-Head-Change                         Max.-Flux-Residual
  Residual-Control   Outer-Iter.   Inner-Iter.     Column Row Layer    Maximum-Head-Change  Column Row Layer    Maximum-Flux-Residual          L2-NORM 
          0                 1           2             2    1     1       0.1518356617E-02       2    1    1         0.7891161101E-01      0.1374006379E+00
          0                 2           2             2    1     1      -0.1476948149E-03       2    1    1        -0.7891169053E-02      0.1374003768E-01
          0                 3           1             2    1     1       0.1005746760E-04       2    1    1         0.5523819801E-03      0.9617996670E-03

    ------------------------------------------------
       NWT REQUIRED            3 OUTER ITERATIONS 
       AND A TOTAL OF          5 INNER ITERATIONS.
    ------------------------------------------------

 NO OUTPUT CONTROL FOR STRESS PERIOD   14   TIME STEP    4
 
 SOLVING FOR HEAD 
                                                   Max.-Head-Change                         Max.-Flux-Residual
  Residual-Control   Outer-Iter.   Inner-Iter.     Column Row Layer    Maximum-Head-Change  Column Row Layer    Maximum-Flux-Residual          L2-NORM 
          0                 1           2             2    1     1       0.1515027160E-02       2    1    1         0.7873779824E-01      0.1362825968E+00
          0                 2           2             2    1     1      -0.1473709494E-03       2    1    1        -0.7873787733E-02      0.1362822453E-01
          0                 3           1             2    1     1       0.1003541415E-04       2    1    1         0.5511653243E-03      0.9539742894E-03

    ------------------------------------------------
       NWT REQUIRED            3 OUTER ITERATIONS 
       AND A TOTAL OF          5 INNER ITERATIONS.
    ------------------------------------------------

 NO OUTPUT CONTROL FOR STRESS PERIOD   14   TIME STEP    5
 
 SOLVING FOR HEAD 
                                                   Max.-Head-Change                         Max.-Flux-Residual
  Residual-Control   Outer-Iter.   Inner-Iter.     Column Row Layer    Maximum-Head-Change  Column Row Layer    Maximum-Flux-Residual          L2-NORM 
          0                 1           2             2    1     1       0.1511720195E-02       2    1    1         0.7856516911E-01      0.1351989329E+00
          0                 2           2             2    1     1      -0.1470492706E-03       2    1    1        -0.7856524749E-02      0.1351986522E-01
          0                 3           1             2    1     1       0.1001350909E-04       2    1    1         0.5499569066E-03      0.9463912263E-03

    ------------------------------------------------
       NWT REQUIRED            3 OUTER ITERATIONS 
       AND A TOTAL OF          5 INNER ITERATIONS.
    ------------------------------------------------

 NO OUTPUT CONTROL FOR STRESS PERIOD   14   TIME STEP    6
 
 SOLVING FOR HEAD 
                                                   Max.-Head-Change                         Max.-Flux-Residual
  Residual-Control   Outer-Iter.   Inner-Iter.     Column Row Layer    Maximum-Head-Change  Column Row Layer    Maximum-Flux-Residual          L2-NORM 
          0                 1           2             2    1     1       0.1508435532E-02       2    1    1         0.7839370624E-01      0.1341480939E+00
          0                 2           2             2    1     1      -0.1467297617E-03       2    1    1        -0.7839378403E-02      0.1341478707E-01
          0                 3           1             2    1     1       0.9991751719E-05       2    1    1         0.5487566729E-03      0.9390391128E-03

    ------------------------------------------------
       NWT REQUIRED            3 OUTER ITERATIONS 
       AND A TOTAL OF          5 INNER ITERATIONS.
    ------------------------------------------------

 NO OUTPUT CONTROL FOR STRESS PERIOD   14   TIME STEP    7
 
 SOLVING FOR HEAD 
                                                   Max.-Head-Change                         Max.-Flux-Residual
  Residual-Control   Outer-Iter.   Inner-Iter.     Column Row Layer    Maximum-Head-Change  Column Row Layer    Maximum-Flux-Residual          L2-NORM 
          0                 1           2             2    1     1       0.1505194039E-02       2    1    1         0.7822450280E-01      0.1331260150E+00
          0                 2           2             2    1     1      -0.1464144513E-03       2    1    1        -0.7822457992E-02      0.1331257399E-01
          0                 3           1             2    1     1       0.9970279773E-05       2    1    1         0.5475722137E-03      0.9318804454E-03

    ------------------------------------------------
       NWT REQUIRED            3 OUTER ITERATIONS 
       AND A TOTAL OF          5 INNER ITERATIONS.
    ------------------------------------------------

 NO OUTPUT CONTROL FOR STRESS PERIOD   14   TIME STEP    8
 
 SOLVING FOR HEAD 
                                                   Max.-Head-Change                         Max.-Flux-Residual
  Residual-Control   Outer-Iter.   Inner-Iter.     Column Row Layer    Maximum-Head-Change  Column Row Layer    Maximum-Flux-Residual          L2-NORM 
          0                 1           2             2    1     1       0.1501953059E-02       2    1    1         0.7805533141E-01      0.1321395378E+00
          0                 2           2             2    1     1      -0.1460991917E-03       2    1    1        -0.7805540792E-02      0.1321392561E-01
          0                 3           1             2    1     1       0.9948811851E-05       2    1    1         0.5463880184E-03      0.9249697011E-03

    ------------------------------------------------
       NWT REQUIRED            3 OUTER ITERATIONS 
       AND A TOTAL OF          5 INNER ITERATIONS.
    ------------------------------------------------

 NO OUTPUT CONTROL FOR STRESS PERIOD   14   TIME STEP    9
 
 SOLVING FOR HEAD 
                                                   Max.-Head-Change                         Max.-Flux-Residual
  Residual-Control   Outer-Iter.   Inner-Iter.     Column Row Layer    Maximum-Head-Change  Column Row Layer    Maximum-Flux-Residual          L2-NORM 
          0                 1           2             2    1     1       0.1498733645E-02       2    1    1         0.7788728978E-01      0.1311731781E+00
          0                 2           2             2    1     1      -0.1457860295E-03       2    1    1        -0.7788736560E-02      0.1311729190E-01
          0                 3           1             2    1     1       0.9927486879E-05       2    1    1         0.5452117263E-03      0.9182120459E-03

    ------------------------------------------------
       NWT REQUIRED            3 OUTER ITERATIONS 
       AND A TOTAL OF          5 INNER ITERATIONS.
    ------------------------------------------------

 NO OUTPUT CONTROL FOR STRESS PERIOD   14   TIME STEP   10
 
 SOLVING FOR HEAD 
                                                   Max.-Head-Change                         Max.-Flux-Residual
  Residual-Control   Outer-Iter.   Inner-Iter.     Column Row Layer    Maximum-Head-Change  Column Row Layer    Maximum-Flux-Residual          L2-NORM 
          0                 1           2             2    1     1       0.1495535521E-02       2    1    1         0.7772036631E-01      0.1302356649E+00
          0                 2           2             2    1     1      -0.1454749387E-03       2    1    1        -0.7772044172E-02      0.1302353361E-01
          0                 3           1             2    1     1       0.9906302728E-05       2    1    1         0.5440432565E-03      0.9116478537E-03

    ------------------------------------------------
       NWT REQUIRED            3 OUTER ITERATIONS 
       AND A TOTAL OF          5 INNER ITERATIONS.
    ------------------------------------------------

 NO OUTPUT CONTROL FOR STRESS PERIOD   14   TIME STEP   11
 
 SOLVING FOR HEAD 
                                                   Max.-Head-Change                         Max.-Flux-Residual
  Residual-Control   Outer-Iter.   Inner-Iter.     Column Row Layer    Maximum-Head-Change  Column Row Layer    Maximum-Flux-Residual          L2-NORM 
          0                 1           2             2    1     1       0.1492358347E-02       2    1    1         0.7755454672E-01      0.1293244877E+00
          0                 2           2             2    1     1      -0.1451658849E-03       2    1    1        -0.7755462131E-02      0.1293241902E-01
          0                 3           1             2    1     1       0.9885257504E-05       2    1    1         0.5428825196E-03      0.9052683404E-03

    ------------------------------------------------
       NWT REQUIRED            3 OUTER ITERATIONS 
       AND A TOTAL OF          5 INNER ITERATIONS.
    ------------------------------------------------

 NO OUTPUT CONTROL FOR STRESS PERIOD   14   TIME STEP   12
 
 SOLVING FOR HEAD 
                                                   Max.-Head-Change                         Max.-Flux-Residual
  Residual-Control   Outer-Iter.   Inner-Iter.     Column Row Layer    Maximum-Head-Change  Column Row Layer    Maximum-Flux-Residual          L2-NORM 
          0                 1           2             2    1     1       0.1489223211E-02       2    1    1         0.7739091677E-01      0.1284419850E+00
          0                 2           2             2    1     1      -0.1448609208E-03       2    1    1        -0.7739099082E-02      0.1284417672E-01
          0                 3           1             2    1     1       0.9864490608E-05       2    1    1         0.5417371100E-03      0.8990955127E-03

    ------------------------------------------------
       NWT REQUIRED            3 OUTER ITERATIONS 
       AND A TOTAL OF          5 INNER ITERATIONS.
    ------------------------------------------------

 NO OUTPUT CONTROL FOR STRESS PERIOD   14   TIME STEP   13
 
 SOLVING FOR HEAD 
                                                   Max.-Head-Change                         Max.-Flux-Residual
  Residual-Control   Outer-Iter.   Inner-Iter.     Column Row Layer    Maximum-Head-Change  Column Row Layer    Maximum-Flux-Residual          L2-NORM 
          0                 1           2             2    1     1       0.1486087392E-02       2    1    1         0.7722725962E-01      0.1275773112E+00
          0                 2           2             2    1     1      -0.1445558901E-03       2    1    1        -0.7722733313E-02      0.1275770065E-01
          0                 3           1             2    1     1       0.9843718978E-05       2    1    1         0.5405914826E-03      0.8930373211E-03

    ------------------------------------------------
       NWT REQUIRED            3 OUTER ITERATIONS 
       AND A TOTAL OF          5 INNER ITERATIONS.
    ------------------------------------------------

 NO OUTPUT CONTROL FOR STRESS PERIOD   14   TIME STEP   14
 
 SOLVING FOR HEAD 
                                                   Max.-Head-Change                         Max.-Flux-Residual
  Residual-Control   Outer-Iter.   Inner-Iter.     Column Row Layer    Maximum-Head-Change  Column Row Layer    Maximum-Flux-Residual          L2-NORM 
          0                 1           2             2    1     1       0.1482972008E-02       2    1    1         0.7706467049E-01      0.1267395739E+00
          0                 2           2             2    1     1      -0.1442528473E-03       2    1    1        -0.7706474334E-02      0.1267393113E-01
          0                 3           1             2    1     1       0.9823082725E-05       2    1    1         0.5394533680E-03      0.8871719848E-03

    ------------------------------------------------
       NWT REQUIRED            3 OUTER ITERATIONS 
       AND A TOTAL OF          5 INNER ITERATIONS.
    ------------------------------------------------

 NO OUTPUT CONTROL FOR STRESS PERIOD   14   TIME STEP   15
 
 SOLVING FOR HEAD 
                                                   Max.-Head-Change                         Max.-Flux-Residual
  Residual-Control   Outer-Iter.   Inner-Iter.     Column Row Layer    Maximum-Head-Change  Column Row Layer    Maximum-Flux-Residual          L2-NORM 
          0                 1           2             2    1     1       0.1479876730E-02       2    1    1         0.7690314088E-01      0.1259211179E+00
          0                 2           2             2    1     1      -0.1439517603E-03       2    1    1        -0.7690321318E-02      0.1259208205E-01
          0                 3           1             2    1     1       0.9802579956E-05       2    1    1         0.5383226475E-03      0.8814429974E-03

    ------------------------------------------------
       NWT REQUIRED            3 OUTER ITERATIONS 
       AND A TOTAL OF          5 INNER ITERATIONS.
    ------------------------------------------------

 NO OUTPUT CONTROL FOR STRESS PERIOD   14   TIME STEP   16
 
 SOLVING FOR HEAD 
                                                   Max.-Head-Change                         Max.-Flux-Residual
  Residual-Control   Outer-Iter.   Inner-Iter.     Column Row Layer    Maximum-Head-Change  Column Row Layer    Maximum-Flux-Residual          L2-NORM 
          0                 1           2             2    1     1       0.1476801361E-02       2    1    1         0.7674265378E-01      0.1251267126E+00
          0                 2           2             2    1     1      -0.1436526104E-03       2    1    1        -0.7674272567E-02      0.1251263290E-01
          0                 3           1             2    1     1       0.9782209251E-05       2    1    1         0.5371992544E-03      0.8758823725E-03

    ------------------------------------------------
       NWT REQUIRED            3 OUTER ITERATIONS 
       AND A TOTAL OF          5 INNER ITERATIONS.
    ------------------------------------------------

 NO OUTPUT CONTROL FOR STRESS PERIOD   14   TIME STEP   17
 
 SOLVING FOR HEAD 
                                                   Max.-Head-Change                         Max.-Flux-Residual
  Residual-Control   Outer-Iter.   Inner-Iter.     Column Row Layer    Maximum-Head-Change  Column Row Layer    Maximum-Flux-Residual          L2-NORM 
          0                 1           2             2    1     1       0.1473745744E-02       2    1    1         0.7658319886E-01      0.1243532321E+00
          0                 2           2             2    1     1      -0.1433553808E-03       2    1    1        -0.7658326998E-02      0.1243529984E-01
          0                 3           1             2    1     1       0.9761968953E-05       2    1    1         0.5360830491E-03      0.8704658596E-03

    ------------------------------------------------
       NWT REQUIRED            3 OUTER ITERATIONS 
       AND A TOTAL OF          5 INNER ITERATIONS.
    ------------------------------------------------

 NO OUTPUT CONTROL FOR STRESS PERIOD   14   TIME STEP   18
 
 SOLVING FOR HEAD 
                                                   Max.-Head-Change                         Max.-Flux-Residual
  Residual-Control   Outer-Iter.   Inner-Iter.     Column Row Layer    Maximum-Head-Change  Column Row Layer    Maximum-Flux-Residual          L2-NORM 
          0                 1           2             2    1     1       0.1470709563E-02       2    1    1         0.7642476814E-01      0.1235977335E+00
          0                 2           2             2    1     1      -0.1430600425E-03       2    1    1        -0.7642483874E-02      0.1235974351E-01
          0                 3           1             2    1     1       0.9741857405E-05       2    1    1         0.5349740430E-03      0.8651785343E-03

    ------------------------------------------------
       NWT REQUIRED            3 OUTER ITERATIONS 
       AND A TOTAL OF          5 INNER ITERATIONS.
    ------------------------------------------------

 NO OUTPUT CONTROL FOR STRESS PERIOD   14   TIME STEP   19
 
 SOLVING FOR HEAD 
                                                   Max.-Head-Change                         Max.-Flux-Residual
  Residual-Control   Outer-Iter.   Inner-Iter.     Column Row Layer    Maximum-Head-Change  Column Row Layer    Maximum-Flux-Residual          L2-NORM 
          0                 1           2             2    1     1       0.1467692725E-02       2    1    1         0.7626734515E-01      0.1228626367E+00
          0                 2           2             2    1     1      -0.1427665861E-03       2    1    1        -0.7626741541E-02      0.1228623020E-01
          0                 3           1             2    1     1       0.9721874371E-05       2    1    1         0.5338720838E-03      0.8600354490E-03

    ------------------------------------------------
       NWT REQUIRED            3 OUTER ITERATIONS 
       AND A TOTAL OF          5 INNER ITERATIONS.
    ------------------------------------------------

 NO OUTPUT CONTROL FOR STRESS PERIOD   14   TIME STEP   20
 
 SOLVING FOR HEAD 
                                                   Max.-Head-Change                         Max.-Flux-Residual
  Residual-Control   Outer-Iter.   Inner-Iter.     Column Row Layer    Maximum-Head-Change  Column Row Layer    Maximum-Flux-Residual          L2-NORM 
          0                 1           2             2    1     1       0.1464694891E-02       2    1    1         0.7611092506E-01      0.1221504229E+00
          0                 2           2             2    1     1      -0.1424749769E-03       2    1    1        -0.7611099452E-02      0.1221501674E-01
          0                 3           1             2    1     1       0.9702016773E-05       2    1    1         0.5327771147E-03      0.8550528475E-03

    ------------------------------------------------
       NWT REQUIRED            3 OUTER ITERATIONS 
       AND A TOTAL OF          5 INNER ITERATIONS.
    ------------------------------------------------

 NO OUTPUT CONTROL FOR STRESS PERIOD   14   TIME STEP   21
 
 SOLVING FOR HEAD 
                                                   Max.-Head-Change                         Max.-Flux-Residual
  Residual-Control   Outer-Iter.   Inner-Iter.     Column Row Layer    Maximum-Head-Change  Column Row Layer    Maximum-Flux-Residual          L2-NORM 
          0                 1           2             2    1     1       0.1461715974E-02       2    1    1         0.7595549030E-01      0.1214533974E+00
          0                 2           2             2    1     1      -0.1421852092E-03       2    1    1        -0.7595555936E-02      0.1214530689E-01
          0                 3           1             2    1     1       0.9682284613E-05       2    1    1         0.5316890811E-03      0.8501673806E-03

    ------------------------------------------------
       NWT REQUIRED            3 OUTER ITERATIONS 
       AND A TOTAL OF          5 INNER ITERATIONS.
    ------------------------------------------------

 NO OUTPUT CONTROL FOR STRESS PERIOD   14   TIME STEP   22
 
 SOLVING FOR HEAD 
                                                   Max.-Head-Change                         Max.-Flux-Residual
  Residual-Control   Outer-Iter.   Inner-Iter.     Column Row Layer    Maximum-Head-Change  Column Row Layer    Maximum-Flux-Residual          L2-NORM 
          0                 1           2             2    1     1       0.1458734634E-02       2    1    1         0.7579993253E-01      0.1207713273E+00
          0                 2           2             2    1     1      -0.1418952051E-03       2    1    1        -0.7580000115E-02      0.1207710366E-01
          0                 3           1             2    1     1       0.9662536358E-05       2    1    1         0.5306001602E-03      0.8453988144E-03

    ------------------------------------------------
       NWT REQUIRED            3 OUTER ITERATIONS 
       AND A TOTAL OF          5 INNER ITERATIONS.
    ------------------------------------------------

 NO OUTPUT CONTROL FOR STRESS PERIOD   14   TIME STEP   23
 
 SOLVING FOR HEAD 
                                                   Max.-Head-Change                         Max.-Flux-Residual
  Residual-Control   Outer-Iter.   Inner-Iter.     Column Row Layer    Maximum-Head-Change  Column Row Layer    Maximum-Flux-Residual          L2-NORM 
          0                 1           2             2    1     1       0.1455792961E-02       2    1    1         0.7564645681E-01      0.1201084204E+00
          0                 2           2             2    1     1      -0.1416090599E-03       2    1    1        -0.7564652505E-02      0.1201081469E-01
          0                 3           1             2    1     1       0.9643050811E-05       2    1    1         0.5295258239E-03      0.8407623299E-03

    ------------------------------------------------
       NWT REQUIRED            3 OUTER ITERATIONS 
       AND A TOTAL OF          5 INNER ITERATIONS.
    ------------------------------------------------

 NO OUTPUT CONTROL FOR STRESS PERIOD   14   TIME STEP   24
 
 SOLVING FOR HEAD 
                                                   Max.-Head-Change                         Max.-Flux-Residual
  Residual-Control   Outer-Iter.   Inner-Iter.     Column Row Layer    Maximum-Head-Change  Column Row Layer    Maximum-Flux-Residual          L2-NORM 
          0                 1           2             2    1     1       0.1452869587E-02       2    1    1         0.7549393392E-01      0.1194637621E+00
          0                 2           2             2    1     1      -0.1413246950E-03       2    1    1        -0.7549400170E-02      0.1194634214E-01
          0                 3           1             2    1     1       0.9623686914E-05       2    1    1         0.5284581809E-03      0.8362423040E-03

    ------------------------------------------------
       NWT REQUIRED            3 OUTER ITERATIONS 
       AND A TOTAL OF          5 INNER ITERATIONS.
    ------------------------------------------------

 NO OUTPUT CONTROL FOR STRESS PERIOD   14   TIME STEP   25
 
 SOLVING FOR HEAD 
                                                   Max.-Head-Change                         Max.-Flux-Residual
  Residual-Control   Outer-Iter.   Inner-Iter.     Column Row Layer    Maximum-Head-Change  Column Row Layer    Maximum-Flux-Residual          L2-NORM 
          0                 1           2             2    1     1       0.1449964285E-02       2    1    1         0.7534235986E-01      0.1188372357E+00
          0                 2           2             2    1     1      -0.1410420868E-03       2    1    1        -0.7534242684E-02      0.1188369524E-01
          0                 3           1             2    1     1       0.9604442300E-05       2    1    1         0.5273971427E-03      0.8318520962E-03

    ------------------------------------------------
       NWT REQUIRED            3 OUTER ITERATIONS 
       AND A TOTAL OF          5 INNER ITERATIONS.
    ------------------------------------------------

 NO OUTPUT CONTROL FOR STRESS PERIOD   14   TIME STEP   26
 
 SOLVING FOR HEAD 
                                                   Max.-Head-Change                         Max.-Flux-Residual
  Residual-Control   Outer-Iter.   Inner-Iter.     Column Row Layer    Maximum-Head-Change  Column Row Layer    Maximum-Flux-Residual          L2-NORM 
          0                 1           2             2    1     1       0.1447076886E-02       2    1    1         0.7519172282E-01      0.1182224758E+00
          0                 2           2             2    1     1      -0.1407612214E-03       2    1    1        -0.7519178936E-02      0.1182221175E-01
          0                 3           1             2    1     1       0.9585316733E-05       2    1    1         0.5263427059E-03      0.8275477997E-03

    ------------------------------------------------
       NWT REQUIRED            3 OUTER ITERATIONS 
       AND A TOTAL OF          5 INNER ITERATIONS.
    ------------------------------------------------

 NO OUTPUT CONTROL FOR STRESS PERIOD   14   TIME STEP   27
 
 SOLVING FOR HEAD 
                                                   Max.-Head-Change                         Max.-Flux-Residual
  Residual-Control   Outer-Iter.   Inner-Iter.     Column Row Layer    Maximum-Head-Change  Column Row Layer    Maximum-Flux-Residual          L2-NORM 
          0                 1           2             2    1     1       0.1444207168E-02       2    1    1         0.7504201403E-01      0.1176242757E+00
          0                 2           2             2    1     1      -0.1404820752E-03       2    1    1        -0.7504208017E-02      0.1176239680E-01
          0                 3           1             2    1     1       0.9566307609E-05       2    1    1         0.5252947265E-03      0.8233710210E-03

    ------------------------------------------------
       NWT REQUIRED            3 OUTER ITERATIONS 
       AND A TOTAL OF          5 INNER ITERATIONS.
    ------------------------------------------------

 NO OUTPUT CONTROL FOR STRESS PERIOD   14   TIME STEP   28
 
 SOLVING FOR HEAD 
                                                   Max.-Head-Change                         Max.-Flux-Residual
  Residual-Control   Outer-Iter.   Inner-Iter.     Column Row Layer    Maximum-Head-Change  Column Row Layer    Maximum-Flux-Residual          L2-NORM 
          0                 1           2             2    1     1       0.1441333695E-02       2    1    1         0.7489211781E-01      0.1170407588E+00
          0                 2           2             2    1     1      -0.1402025642E-03       2    1    1        -0.7489218358E-02      0.1170403428E-01
          0                 3           1             2    1     1       0.9547274108E-05       2    1    1         0.5242454483E-03      0.8192899898E-03

    ------------------------------------------------
       NWT REQUIRED            3 OUTER ITERATIONS 
       AND A TOTAL OF          5 INNER ITERATIONS.
    ------------------------------------------------

 NO OUTPUT CONTROL FOR STRESS PERIOD   14   TIME STEP   29
 
 SOLVING FOR HEAD 
                                                   Max.-Head-Change                         Max.-Flux-Residual
  Residual-Control   Outer-Iter.   Inner-Iter.     Column Row Layer    Maximum-Head-Change  Column Row Layer    Maximum-Flux-Residual          L2-NORM 
          0                 1           2             2    1     1       0.1438498941E-02       2    1    1         0.7474423517E-01      0.1164682260E+00
          0                 2           2             2    1     1      -0.1399268190E-03       2    1    1        -0.7474430038E-02      0.1164678312E-01
          0                 3           1             2    1     1       0.9528496687E-05       2    1    1         0.5232102651E-03      0.8152747703E-03

    ------------------------------------------------
       NWT REQUIRED            3 OUTER ITERATIONS 
       AND A TOTAL OF          5 INNER ITERATIONS.
    ------------------------------------------------

 NO OUTPUT CONTROL FOR STRESS PERIOD   14   TIME STEP   30



 STREAM LISTING     PERIOD     14   STEP       30

 LAYER ROW COL. STREAM  RCH.  FLOW INTO     FLOW TO   FLOW OUT OF   OVRLND.     DIRECT     STREAM       STREAM     STREAM     STREAM   STREAMBED  STREAMBED
                SEG.NO.  NO.  STRM. RCH.    AQUIFER    STRM. RCH.    RUNOFF     PRECIP       ET          HEAD       DEPTH      WIDTH   CONDCTNC.   GRADIENT

   1    1    1     1     1    1.4250E+01  1.8169E-01   1.4069E+01  0.000E+00  0.000E+00  0.000E+00  1.09404E+03  9.953E-01  1.011E+01  4.548E-02  1.332E+00
   1    2    2     1     2    1.4069E+01  2.7999E-01   1.3789E+01  0.000E+00  0.000E+00  0.000E+00  1.08905E+03  9.906E-01  1.002E+01  7.016E-02  1.330E+00
   1    3    3     1     3    1.3789E+01  2.3745E-01   1.3551E+01  0.000E+00  0.000E+00  0.000E+00  1.08340E+03  9.853E-01  9.930E+00  5.958E-02  1.328E+00
   1    3    4     1     4    1.3551E+01  2.1755E-01   1.3334E+01  0.000E+00  0.000E+00  0.000E+00  1.07839E+03  9.805E-01  9.848E+00  5.465E-02  1.327E+00
   1    4    5     2     1    1.1334E+01  2.9214E-01   1.1041E+01  0.000E+00  0.000E+00  0.000E+00  1.07268E+03  7.454E-01  1.200E+01  7.800E-02  1.248E+00
   1    5    6     2     2    1.1041E+01  2.2410E-01   1.0817E+01  0.000E+00  0.000E+00  0.000E+00  1.06724E+03  7.350E-01  1.200E+01  6.000E-02  1.245E+00
   1    6    6     2     3    1.0817E+01  2.2356E-01   1.0594E+01  0.000E+00  0.000E+00  0.000E+00  1.06252E+03  7.260E-01  1.200E+01  6.000E-02  1.242E+00
   1    7    6     2     4    1.0594E+01  2.2301E-01   1.0371E+01  0.000E+00  0.000E+00  0.000E+00  1.05779E+03  7.168E-01  1.200E+01  6.000E-02  1.239E+00
   1    8    6     2     5    1.0371E+01  2.2246E-01   1.0148E+01  0.000E+00  0.000E+00  0.000E+00  1.05307E+03  7.077E-01  1.200E+01  6.000E-02  1.236E+00
   1    3    5     3     1    2.0000E+00  2.8252E-01   1.7175E+00  0.000E+00  0.000E+00  0.000E+00  1.07555E+03  1.909E+00  9.636E+00  7.227E-02  1.955E+00
   1    3    6     3     2    1.7175E+00  2.4905E-01   1.4684E+00  0.000E+00  0.000E+00  0.000E+00  1.07264E+03  1.727E+00  8.909E+00  6.682E-02  1.864E+00
   1    3    7     3     3    1.4684E+00  1.9718E-01   1.2712E+00  0.000E+00  0.000E+00  0.000E+00  1.06987E+03  1.555E+00  8.218E+00  5.547E-02  1.777E+00
   1    4    8     3     4    1.2712E+00  2.2567E-01   1.0456E+00  0.000E+00  0.000E+00  0.000E+00  1.06682E+03  1.364E+00  7.455E+00  6.709E-02  1.682E+00
   1    5    8     3     5    1.0456E+00  1.5790E-01   8.8768E-01  0.000E+00  0.000E+00  0.000E+00  1.06362E+03  1.164E+00  6.655E+00  4.991E-02  1.582E+00
   1    6    8     3     6    8.8768E-01  5.5980E-02   8.3170E-01  0.000E+00  0.000E+00  0.000E+00  1.06158E+03  1.036E+00  6.145E+00  1.844E-02  1.518E+00
   1    5   10     4     1    1.0000E+01  9.0919E-02   9.9091E+00  0.000E+00  0.000E+00  0.000E+00  1.07836E+03  6.368E-01  1.000E+01  2.500E-02  1.212E+00
   1    5    9     4     2    9.9091E+00  1.8158E-01   9.7275E+00  0.000E+00  0.000E+00  0.000E+00  1.07154E+03  6.315E-01  1.000E+01  5.000E-02  1.211E+00
   1    6    8     4     3    9.7275E+00  1.2689E-01   9.6006E+00  0.000E+00  0.000E+00  0.000E+00  1.06381E+03  6.256E-01  1.000E+01  3.500E-02  1.209E+00
   1    6    8     5     1    1.0432E+01  2.2686E-01   1.0205E+01  0.000E+00  0.000E+00  0.000E+00  1.05868E+03  6.790E-01  1.542E+01  6.166E-02  1.226E+00
   1    7    7     5     2    1.0205E+01  2.7894E-01   9.9265E+00  0.000E+00  0.000E+00  0.000E+00  1.05417E+03  6.732E-01  1.519E+01  7.594E-02  1.224E+00
   1    8    7     5     3    9.9265E+00  1.9221E-01   9.7343E+00  0.000E+00  0.000E+00  0.000E+00  1.04992E+03  6.676E-01  1.497E+01  5.241E-02  1.223E+00
   1    8    6     5     4    9.7343E+00  1.3577E-01   9.5985E+00  0.000E+00  0.000E+00  0.000E+00  1.04691E+03  6.637E-01  1.482E+01  3.706E-02  1.221E+00
   1    9    6     6     1    9.5985E+00  2.2097E-01   9.3776E+00  0.000E+00  0.000E+00  0.000E+00  1.04341E+03  6.828E-01  1.200E+01  6.000E-02  1.228E+00
   1   10    7     6     2    9.3776E+00  2.2039E-01   9.1572E+00  0.000E+00  0.000E+00  0.000E+00  1.03885E+03  6.732E-01  1.200E+01  6.000E-02  1.224E+00
   1   11    7     6     3    9.1572E+00  2.1981E-01   8.9374E+00  0.000E+00  0.000E+00  0.000E+00  1.03430E+03  6.636E-01  1.200E+01  6.000E-02  1.221E+00
   1   12    7     6     4    8.9374E+00  2.1923E-01   8.7181E+00  0.000E+00  0.000E+00  0.000E+00  1.02974E+03  6.539E-01  1.200E+01  6.000E-02  1.218E+00
   1   13    7     6     5    8.7181E+00 -1.1198E-01   8.8301E+00  0.000E+00  0.000E+00  0.000E+00  1.02656E+03  6.515E-01  1.200E+01  2.400E-01 -1.555E-01
   1   14    9     7     1    1.5000E+02  1.3408E+00   1.4866E+02  0.000E+00  0.000E+00  0.000E+00  1.03987E+03  2.288E+00  5.529E+01  5.593E-01  7.991E-01
   1   13    8     7     2    1.4866E+02  1.8453E+00   1.4681E+02  0.000E+00  0.000E+00  0.000E+00  1.03478E+03  2.279E+00  5.526E+01  6.148E-01  1.001E+00
   1   13    7     7     3    1.4681E+02  1.4869E+00   1.4533E+02  0.000E+00  0.000E+00  0.000E+00  1.02969E+03  2.270E+00  5.522E+01  5.584E-01  8.875E-01
   1   13    6     8     1    1.5416E+02  8.3867E-01   1.5332E+02  0.000E+00  0.000E+00  0.000E+00  1.02472E+03  2.843E+00  4.122E+01  4.201E-01  6.655E-01
   1   13    5     8     2    1.5332E+02  1.0905E-01   1.5321E+02  0.000E+00  0.000E+00  0.000E+00  1.01846E+03  2.840E+00  4.118E+01  4.196E-01  8.663E-02
   1   13    4     8     3    1.5321E+02 -2.6499E+00   1.5586E+02  0.000E+00  0.000E+00  0.000E+00  1.01222E+03  2.848E+00  4.130E+01  4.209E+00 -2.099E-01
   1   13    3     8     4    1.5586E+02 -3.7356E+00   1.5959E+02  0.000E+00  0.000E+00  0.000E+00  1.00600E+03  2.870E+00  4.162E+01  4.241E+00 -2.936E-01
   1   13    2     8     5    1.5959E+02 -2.5970E+00   1.6219E+02  0.000E+00  0.000E+00  0.000E+00  9.99767E+02  2.892E+00  4.193E+01  4.273E+00 -2.026E-01
   1   13    1     8     6    1.6219E+02 -1.9803E+00   1.6417E+02  0.000E+00  0.000E+00  0.000E+00  9.94782E+02  2.907E+00  4.215E+01  2.577E+00 -2.561E-01
   1    8    6     9     1    1.0148E+01  0.0000E+00   1.0148E+01  0.000E+00  0.000E+00  0.000E+00  1.08104E+03  2.286E+00  4.000E+00  0.000E+00  1.762E+00
   1    8    5     9     2    1.0148E+01  0.0000E+00   1.0148E+01  0.000E+00  0.000E+00  0.000E+00  1.08054E+03  2.286E+00  4.000E+00  0.000E+00  1.762E+00





UNSATURATED ZONE PACKAGE VOLUMETRIC BUDGET FOR  TIME STEP    30 STRESS PERIOD   14
  ------------------------------------------------------------------------------



     CUMULATIVE VOLUMES      L**3       RATES FOR THIS TIME STEP      L**3/T
     ------------------                 ------------------------

           IN:                                      IN:
           ---                                      ---
        INFILTRATION =    29049247.3456          INFILTRATION =           0.8475

          OUT:                                     OUT:
          ----                                     ----
              UZF ET =    28122939.2715                UZF ET =           0.7500
        UZF RECHARGE =       73224.0000          UZF RECHARGE =       0.0000E+00

            IN - OUT =      853084.0742              IN - OUT =       9.7500E-02

          STORAGE:                                 STORAGE:
          --------                                 --------
      STORAGE CHANGE =      853084.1949        STORAGE CHANGE =       9.7500E-02

 PERCENT DISCREPANCY IS DIFFERENCE BETWEEN IN-OUT MINUS CHANGE IN STORAGE
 DIVIDED BY THE AVERAGE OF IN AND OUT TIMES 100

 PERCENT DISCREPANCY =           0.00     PERCENT DISCREPANCY =           0.00






1
  VOLUMETRIC BUDGET FOR ENTIRE MODEL AT END OF TIME STEP   30, STRESS PERIOD  14
  ------------------------------------------------------------------------------

     CUMULATIVE VOLUMES      L**3       RATES FOR THIS TIME STEP      L**3/T
     ------------------                 ------------------------

           IN:                                      IN:
           ---                                      ---
             STORAGE     =    16578674.0000               STORAGE     =           0.3622
       CONSTANT HEAD     =           0.0000         CONSTANT HEAD     =           0.0000
     HEAD DEP BOUNDS     =     9799434.0000       HEAD DEP BOUNDS     =           0.2861
      STREAM LEAKAGE     =   401383744.0000        STREAM LEAKAGE     =          11.0045
        UZF RECHARGE     =       73223.9531          UZF RECHARGE     =           0.0000
               GW ET     =           0.0000                 GW ET     =           0.0000
     SURFACE LEAKAGE     =           0.0000       SURFACE LEAKAGE     =           0.0000

                TOTAL IN =   427835072.0000                  TOTAL IN =          11.6527

          OUT:                                     OUT:
          ----                                     ----
             STORAGE     =    37596272.0000               STORAGE     =           0.2911
       CONSTANT HEAD     =           0.0000         CONSTANT HEAD     =           0.0000
     HEAD DEP BOUNDS     =     9835355.0000       HEAD DEP BOUNDS     =           0.2869
      STREAM LEAKAGE     =   380409280.0000        STREAM LEAKAGE     =          11.0747
        UZF RECHARGE     =           0.0000          UZF RECHARGE     =           0.0000
               GW ET     =           0.0000                 GW ET     =           0.0000
     SURFACE LEAKAGE     =           0.0000       SURFACE LEAKAGE     =           0.0000

               TOTAL OUT =   427840896.0000                 TOTAL OUT =          11.6527

                IN - OUT =       -5824.0000                  IN - OUT =       2.3842E-05

     PERCENT DISCREPANCY =          -0.00         PERCENT DISCREPANCY =           0.00






         TIME SUMMARY AT END OF TIME STEP   30 IN STRESS PERIOD   14
                    SECONDS     MINUTES      HOURS       DAYS        YEARS
                    -----------------------------------------------------------
   TIME STEP LENGTH  87667.      1461.1      24.352      1.0147     2.77799E-03
 STRESS PERIOD TIME 2.63000E+06  43833.      730.56      30.440     8.33397E-02
         TOTAL TIME 3.42763E+07 5.71272E+05  9521.2      396.72      1.0862    
1
1
                            STRESS PERIOD NO.   15, LENGTH =   2630000.    
                            -----------------------------------------------

                              NUMBER OF TIME STEPS =    30

                               MULTIPLIER FOR DELT =     1.000

                            INITIAL TIME STEP SIZE =   87666.66    

 REUSING NON-PARAMETER GHB CELLS FROM LAST STRESS PERIOD

      2 GHB CELLS

 REUSING STREAM SEGMENT DATA FROM LAST STRESS PERIOD



            AREAL INFILTRATION RATE
 READING ON UNIT   19 WITH FORMAT: (FREE)              

            1           2           3           4           5           6           7           8           9          10
 ........................................................................................................................
   1   1.0000E-10  2.0000E-10   0.000       0.000       0.000       0.000       0.000       0.000       0.000       0.000    
   2   2.0000E-10  1.0000E-10  2.0000E-10   0.000       0.000      8.0000E-10  8.0000E-10  5.0000E-10   0.000       0.000    
   3    0.000      5.0000E-10  1.0000E-10  1.0000E-10  8.0000E-10  8.0000E-10  5.0000E-10  5.0000E-10   0.000       0.000    
   4   8.0000E-10  5.0000E-10  1.0000E-10  1.0000E-10  1.0000E-10  1.0000E-10  1.0000E-10  1.0000E-10  2.0000E-10   0.000    
   5   8.0000E-10  5.0000E-10  1.0000E-10  1.0000E-10  1.0000E-10  1.0000E-10  1.0000E-10  1.0000E-10  1.0000E-10  1.0000E-10
   6   8.0000E-10  5.0000E-10  5.0000E-10  2.0000E-10  2.0000E-10  1.0000E-10  1.0000E-10  1.0000E-10  1.0000E-10  5.0000E-10
   7   8.0000E-10  5.0000E-10  5.0000E-10  2.0000E-10  2.0000E-10  1.0000E-10  1.0000E-10  2.0000E-10  2.0000E-10   0.000    
   8    0.000      5.0000E-10  5.0000E-10  2.0000E-10  2.0000E-10  1.0000E-10  1.0000E-10  2.0000E-10  5.0000E-10   0.000    
   9    0.000      5.0000E-10  5.0000E-10  2.0000E-10  2.0000E-10  1.0000E-10  1.0000E-10  2.0000E-10  5.0000E-10   0.000    
  10    0.000      5.0000E-10  5.0000E-10  2.0000E-10  2.0000E-10  1.0000E-10  1.0000E-10  2.0000E-10  5.0000E-10  8.0000E-10
  11    0.000      1.0000E-10  1.0000E-10  1.0000E-10  1.0000E-10  1.0000E-10  1.0000E-10  2.0000E-10  5.0000E-10   0.000    
  12   1.0000E-10  1.0000E-10  1.0000E-10  1.0000E-10  1.0000E-10  1.0000E-10  1.0000E-10  1.0000E-10  2.0000E-10   0.000    
  13   1.0000E-10  1.0000E-10  2.0000E-10  2.0000E-10  2.0000E-10  2.0000E-10  2.0000E-10  1.0000E-10  1.0000E-10   0.000    
  14    0.000      2.0000E-10  5.0000E-10  5.0000E-10  5.0000E-10  5.0000E-10  5.0000E-10  2.0000E-10  1.0000E-10   0.000    
  15    0.000       0.000      8.0000E-10  8.0000E-10  8.0000E-10  8.0000E-10   0.000       0.000       0.000       0.000    

                  ET RATE =  5.000000E-10

 USING ET EXTINCTION DEPTH FROM PREVIOUS STRESS PERIOD. CURRENT PERIOD IS:      15

 USING EXTINCTION WATER CONTENT FROM PREVIOUS STRESS PERIOD. CURRENT PERIOD IS:      15

 USING AIR ENTRY PRESSURE FROM PREVIOUS STRESS PERIOD. CURRENT PERIOD IS:      15

 USING ROOT PRESSURE HEAD FROM PREVIOUS STRESS PERIOD. CURRENT PERIOD IS:      15

 USING ROOT ACTIVITY FROM PREVIOUS STRESS PERIOD. CURRENT PERIOD IS:      15
 
 SOLVING FOR HEAD 
                                                   Max.-Head-Change                         Max.-Flux-Residual
  Residual-Control   Outer-Iter.   Inner-Iter.     Column Row Layer    Maximum-Head-Change  Column Row Layer    Maximum-Flux-Residual          L2-NORM 
          0                 1           2             2    1     1       0.1435681300E-02       2    1    1         0.7459725597E-01      0.1159161780E+00
          0                 2           2             2    1     1      -0.1396527384E-03       2    1    1        -0.7459732064E-02      0.1159158841E-01
          0                 3           1             2    1     1       0.9509833106E-05       2    1    1         0.5221814030E-03      0.8114120040E-03

    ------------------------------------------------
       NWT REQUIRED            3 OUTER ITERATIONS 
       AND A TOTAL OF          5 INNER ITERATIONS.
    ------------------------------------------------

 NO OUTPUT CONTROL FOR STRESS PERIOD   15   TIME STEP    1
 
 SOLVING FOR HEAD 
                                                   Max.-Head-Change                         Max.-Flux-Residual
  Residual-Control   Outer-Iter.   Inner-Iter.     Column Row Layer    Maximum-Head-Change  Column Row Layer    Maximum-Flux-Residual          L2-NORM 
          0                 1           2             2    1     1       0.1433218854E-02       2    1    1         0.7445005980E-01      0.1145400992E+00
          0                 2           2             2    1     1      -0.1394132015E-03       2    1    1        -0.7445011897E-02      0.1145398300E-01
          0                 3           1             2    1     1       0.9493521821E-05       2    1    1         0.5211510213E-03      0.8017806450E-03

    ------------------------------------------------
       NWT REQUIRED            3 OUTER ITERATIONS 
       AND A TOTAL OF          5 INNER ITERATIONS.
    ------------------------------------------------

 NO OUTPUT CONTROL FOR STRESS PERIOD   15   TIME STEP    2
 
 SOLVING FOR HEAD 
                                                   Max.-Head-Change                         Max.-Flux-Residual
  Residual-Control   Outer-Iter.   Inner-Iter.     Column Row Layer    Maximum-Head-Change  Column Row Layer    Maximum-Flux-Residual          L2-NORM 
          0                 1           2             2    1     1       0.1431037735E-02       2    1    1         0.7432349451E-01      0.1151163219E+00
          0                 2           2             2    1     1      -0.1392010316E-03       2    1    1        -0.7432354953E-02      0.1151159357E-01
          0                 3           1             2    1     1       0.9479073865E-05       2    1    1         0.5202650181E-03      0.8058008575E-03

    ------------------------------------------------
       NWT REQUIRED            3 OUTER ITERATIONS 
       AND A TOTAL OF          5 INNER ITERATIONS.
    ------------------------------------------------

 NO OUTPUT CONTROL FOR STRESS PERIOD   15   TIME STEP    3
 
 SOLVING FOR HEAD 
                                                   Max.-Head-Change                         Max.-Flux-Residual
  Residual-Control   Outer-Iter.   Inner-Iter.     Column Row Layer    Maximum-Head-Change  Column Row Layer    Maximum-Flux-Residual          L2-NORM 
          0                 1           2             2    1     1       0.1428868851E-02       2    1    1         0.7421040972E-01      0.1148415825E+00
          0                 2           2             2    1     1      -0.1389900575E-03       2    1    1        -0.7421046420E-02      0.1148412052E-01
          0                 3           1             2    1     1       0.9464707324E-05       2    1    1         0.5194734196E-03      0.8038820481E-03

    ------------------------------------------------
       NWT REQUIRED            3 OUTER ITERATIONS 
       AND A TOTAL OF          5 INNER ITERATIONS.
    ------------------------------------------------

 NO OUTPUT CONTROL FOR STRESS PERIOD   15   TIME STEP    4
 
 SOLVING FOR HEAD 
                                                   Max.-Head-Change                         Max.-Flux-Residual
  Residual-Control   Outer-Iter.   Inner-Iter.     Column Row Layer    Maximum-Head-Change  Column Row Layer    Maximum-Flux-Residual          L2-NORM 
          0                 1           2             2    1     1       0.1426690655E-02       2    1    1         0.7409685093E-01      0.1145719428E+00
          0                 2           2             2    1     1      -0.1387781783E-03       2    1    1        -0.7409690531E-02      0.1145715070E-01
          0                 3           1             2    1     1       0.9450279248E-05       2    1    1         0.5186785124E-03      0.8019940443E-03

    ------------------------------------------------
       NWT REQUIRED            3 OUTER ITERATIONS 
       AND A TOTAL OF          5 INNER ITERATIONS.
    ------------------------------------------------

 NO OUTPUT CONTROL FOR STRESS PERIOD   15   TIME STEP    5
 
 SOLVING FOR HEAD 
                                                   Max.-Head-Change                         Max.-Flux-Residual
  Residual-Control   Outer-Iter.   Inner-Iter.     Column Row Layer    Maximum-Head-Change  Column Row Layer    Maximum-Flux-Residual          L2-NORM 
          0                 1           2             2    1     1       0.1424545669E-02       2    1    1         0.7398501810E-01      0.1143079144E+00
          0                 2           2             2    1     1      -0.1385695295E-03       2    1    1        -0.7398507232E-02      0.1143076160E-01
          0                 3           1             2    1     1       0.9436071041E-05       2    1    1         0.5178956838E-03      0.8001540378E-03

    ------------------------------------------------
       NWT REQUIRED            3 OUTER ITERATIONS 
       AND A TOTAL OF          5 INNER ITERATIONS.
    ------------------------------------------------

 NO OUTPUT CONTROL FOR STRESS PERIOD   15   TIME STEP    6
 
 SOLVING FOR HEAD 
                                                   Max.-Head-Change                         Max.-Flux-Residual
  Residual-Control   Outer-Iter.   Inner-Iter.     Column Row Layer    Maximum-Head-Change  Column Row Layer    Maximum-Flux-Residual          L2-NORM 
          0                 1           2             2    1     1       0.1422412471E-02       2    1    1         0.7387380279E-01      0.1140513971E+00
          0                 2           2             2    1     1      -0.1383620264E-03       2    1    1        -0.7387385630E-02      0.1140510249E-01
          0                 3           1             2    1     1       0.9421940937E-05       2    1    1         0.5171171838E-03      0.7983593912E-03

    ------------------------------------------------
       NWT REQUIRED            3 OUTER ITERATIONS 
       AND A TOTAL OF          5 INNER ITERATIONS.
    ------------------------------------------------

 NO OUTPUT CONTROL FOR STRESS PERIOD   15   TIME STEP    7
 
 SOLVING FOR HEAD 
                                                   Max.-Head-Change                         Max.-Flux-Residual
  Residual-Control   Outer-Iter.   Inner-Iter.     Column Row Layer    Maximum-Head-Change  Column Row Layer    Maximum-Flux-Residual          L2-NORM 
          0                 1           2             2    1     1       0.1420269689E-02       2    1    1         0.7376209411E-01      0.1138028687E+00
          0                 2           2             2    1     1      -0.1381535912E-03       2    1    1        -0.7376214740E-02      0.1138038874E-01
          0                 3           1             2    1     1       0.9407746694E-05       2    1    1         0.5163351806E-03      0.7967993009E-03

    ------------------------------------------------
       NWT REQUIRED            3 OUTER ITERATIONS 
       AND A TOTAL OF          5 INNER ITERATIONS.
    ------------------------------------------------

 NO OUTPUT CONTROL FOR STRESS PERIOD   15   TIME STEP    8
 
 SOLVING FOR HEAD 
                                                   Max.-Head-Change                         Max.-Flux-Residual
  Residual-Control   Outer-Iter.   Inner-Iter.     Column Row Layer    Maximum-Head-Change  Column Row Layer    Maximum-Flux-Residual          L2-NORM 
          0                 1           2             2    1     1       0.1418159758E-02       2    1    1         0.7365209761E-01      0.1135574041E+00
          0                 2           2             2    1     1      -0.1379483524E-03       2    1    1        -0.7365215051E-02      0.1135570433E-01
          0                 3           1             2    1     1       0.9393771374E-05       2    1    1         0.5155652290E-03      0.7948942195E-03

    ------------------------------------------------
       NWT REQUIRED            3 OUTER ITERATIONS 
       AND A TOTAL OF          5 INNER ITERATIONS.
    ------------------------------------------------

 NO OUTPUT CONTROL FOR STRESS PERIOD   15   TIME STEP    9
 
 SOLVING FOR HEAD 
                                                   Max.-Head-Change                         Max.-Flux-Residual
  Residual-Control   Outer-Iter.   Inner-Iter.     Column Row Layer    Maximum-Head-Change  Column Row Layer    Maximum-Flux-Residual          L2-NORM 
          0                 1           2             2    1     1       0.1416040006E-02       2    1    1         0.7354159525E-01      0.1133157976E+00
          0                 2           2             2    1     1      -0.1377421580E-03       2    1    1        -0.7354164791E-02      0.1133153771E-01
          0                 3           1             2    1     1       0.9379730022E-05       2    1    1         0.5147917093E-03      0.7931933357E-03

    ------------------------------------------------
       NWT REQUIRED            3 OUTER ITERATIONS 
       AND A TOTAL OF          5 INNER ITERATIONS.
    ------------------------------------------------

 NO OUTPUT CONTROL FOR STRESS PERIOD   15   TIME STEP   10
 
 SOLVING FOR HEAD 
                                                   Max.-Head-Change                         Max.-Flux-Residual
  Residual-Control   Outer-Iter.   Inner-Iter.     Column Row Layer    Maximum-Head-Change  Column Row Layer    Maximum-Flux-Residual          L2-NORM 
          0                 1           2             2    1     1       0.1413952873E-02       2    1    1         0.7343279289E-01      0.1130829316E+00
          0                 2           2             2    1     1      -0.1375391362E-03       2    1    1        -0.7343284532E-02      0.1130825373E-01
          0                 3           1             2    1     1       0.9365904516E-05       2    1    1         0.5140300732E-03      0.7915728998E-03

    ------------------------------------------------
       NWT REQUIRED            3 OUTER ITERATIONS 
       AND A TOTAL OF          5 INNER ITERATIONS.
    ------------------------------------------------

 NO OUTPUT CONTROL FOR STRESS PERIOD   15   TIME STEP   11
 
 SOLVING FOR HEAD 
                                                   Max.-Head-Change                         Max.-Flux-Residual
  Residual-Control   Outer-Iter.   Inner-Iter.     Column Row Layer    Maximum-Head-Change  Column Row Layer    Maximum-Flux-Residual          L2-NORM 
          0                 1           2             2    1     1       0.1411855714E-02       2    1    1         0.7332347249E-01      0.1128540066E+00
          0                 2           2             2    1     1      -0.1373351397E-03       2    1    1        -0.7332352454E-02      0.1128537161E-01
          0                 3           1             2    1     1       0.9352013925E-05       2    1    1         0.5132648575E-03      0.7899808322E-03

    ------------------------------------------------
       NWT REQUIRED            3 OUTER ITERATIONS 
       AND A TOTAL OF          5 INNER ITERATIONS.
    ------------------------------------------------

 NO OUTPUT CONTROL FOR STRESS PERIOD   15   TIME STEP   12
 
 SOLVING FOR HEAD 
                                                   Max.-Head-Change                         Max.-Flux-Residual
  Residual-Control   Outer-Iter.   Inner-Iter.     Column Row Layer    Maximum-Head-Change  Column Row Layer    Maximum-Flux-Residual          L2-NORM 
          0                 1           2             2    1     1       0.1409790949E-02       2    1    1         0.7321584167E-01      0.1126299524E+00
          0                 2           2             2    1     1      -0.1371342937E-03       2    1    1        -0.7321589349E-02      0.1126296480E-01
          0                 3           1             2    1     1       0.9338336577E-05       2    1    1         0.5125114189E-03      0.7884127586E-03

    ------------------------------------------------
       NWT REQUIRED            3 OUTER ITERATIONS 
       AND A TOTAL OF          5 INNER ITERATIONS.
    ------------------------------------------------

 NO OUTPUT CONTROL FOR STRESS PERIOD   15   TIME STEP   13
 
 SOLVING FOR HEAD 
                                                   Max.-Head-Change                         Max.-Flux-Residual
  Residual-Control   Outer-Iter.   Inner-Iter.     Column Row Layer    Maximum-Head-Change  Column Row Layer    Maximum-Flux-Residual          L2-NORM 
          0                 1           2             2    1     1       0.1407716003E-02       2    1    1         0.7310768094E-01      0.1124067219E+00
          0                 2           2             2    1     1      -0.1369324575E-03       2    1    1        -0.7310773247E-02      0.1124063619E-01
          0                 3           1             2    1     1       0.9324592250E-05       2    1    1         0.5117542923E-03      0.7868383913E-03

    ------------------------------------------------
       NWT REQUIRED            3 OUTER ITERATIONS 
       AND A TOTAL OF          5 INNER ITERATIONS.
    ------------------------------------------------

 NO OUTPUT CONTROL FOR STRESS PERIOD   15   TIME STEP   14
 
 SOLVING FOR HEAD 
                                                   Max.-Head-Change                         Max.-Flux-Residual
  Residual-Control   Outer-Iter.   Inner-Iter.     Column Row Layer    Maximum-Head-Change  Column Row Layer    Maximum-Flux-Residual          L2-NORM 
          0                 1           2             2    1     1       0.1405673230E-02       2    1    1         0.7300120188E-01      0.1121925921E+00
          0                 2           2             2    1     1      -0.1367337510E-03       2    1    1        -0.7300125310E-02      0.1121923187E-01
          0                 3           1             2    1     1       0.9311061166E-05       2    1    1         0.5110089442E-03      0.7853481178E-03

    ------------------------------------------------
       NWT REQUIRED            3 OUTER ITERATIONS 
       AND A TOTAL OF          5 INNER ITERATIONS.
    ------------------------------------------------

 NO OUTPUT CONTROL FOR STRESS PERIOD   15   TIME STEP   15
 
 SOLVING FOR HEAD 
                                                   Max.-Head-Change                         Max.-Flux-Residual
  Residual-Control   Outer-Iter.   Inner-Iter.     Column Row Layer    Maximum-Head-Change  Column Row Layer    Maximum-Flux-Residual          L2-NORM 
          0                 1           2             2    1     1       0.1403619957E-02       2    1    1         0.7289418133E-01      0.1119815252E+00
          0                 2           2             2    1     1      -0.1365340232E-03       2    1    1        -0.7289423231E-02      0.1119812013E-01
          0                 3           1             2    1     1       0.9297460500E-05       2    1    1         0.5102597873E-03      0.7838637100E-03

    ------------------------------------------------
       NWT REQUIRED            3 OUTER ITERATIONS 
       AND A TOTAL OF          5 INNER ITERATIONS.
    ------------------------------------------------

 NO OUTPUT CONTROL FOR STRESS PERIOD   15   TIME STEP   16
 
 SOLVING FOR HEAD 
                                                   Max.-Head-Change                         Max.-Flux-Residual
  Residual-Control   Outer-Iter.   Inner-Iter.     Column Row Layer    Maximum-Head-Change  Column Row Layer    Maximum-Flux-Residual          L2-NORM 
          0                 1           2             2    1     1       0.1401598646E-02       2    1    1         0.7278882616E-01      0.1117760349E+00
          0                 2           2             2    1     1      -0.1363374044E-03       2    1    1        -0.7278887673E-02      0.1117757535E-01
          0                 3           1             2    1     1       0.9284071656E-05       2    1    1         0.5095223241E-03      0.7824294525E-03

    ------------------------------------------------
       NWT REQUIRED            3 OUTER ITERATIONS 
       AND A TOTAL OF          5 INNER ITERATIONS.
    ------------------------------------------------

 NO OUTPUT CONTROL FOR STRESS PERIOD   15   TIME STEP   17
 
 SOLVING FOR HEAD 
                                                   Max.-Head-Change                         Max.-Flux-Residual
  Residual-Control   Outer-Iter.   Inner-Iter.     Column Row Layer    Maximum-Head-Change  Column Row Layer    Maximum-Flux-Residual          L2-NORM 
          0                 1           2             2    1     1       0.1399566719E-02       2    1    1         0.7268291828E-01      0.1115726609E+00
          0                 2           2             2    1     1      -0.1361397528E-03       2    1    1        -0.7268296875E-02      0.1115722781E-01
          0                 3           1             2    1     1       0.9270612047E-05       2    1    1         0.5087809473E-03      0.7809987247E-03

    ------------------------------------------------
       NWT REQUIRED            3 OUTER ITERATIONS 
       AND A TOTAL OF          5 INNER ITERATIONS.
    ------------------------------------------------

 NO OUTPUT CONTROL FOR STRESS PERIOD   15   TIME STEP   18
 
 SOLVING FOR HEAD 
                                                   Max.-Head-Change                         Max.-Flux-Residual
  Residual-Control   Outer-Iter.   Inner-Iter.     Column Row Layer    Maximum-Head-Change  Column Row Layer    Maximum-Flux-Residual          L2-NORM 
          0                 1           2             2    1     1       0.1397566544E-02       2    1    1         0.7257866992E-01      0.1113729688E+00
          0                 2           2             2    1     1      -0.1359451898E-03       2    1    1        -0.7257871993E-02      0.1113727034E-01
          0                 3           1             2    1     1       0.9257363314E-05       2    1    1         0.5080512188E-03      0.7796133200E-03

    ------------------------------------------------
       NWT REQUIRED            3 OUTER ITERATIONS 
       AND A TOTAL OF          5 INNER ITERATIONS.
    ------------------------------------------------

 NO OUTPUT CONTROL FOR STRESS PERIOD   15   TIME STEP   19
 
 SOLVING FOR HEAD 
                                                   Max.-Head-Change                         Max.-Flux-Residual
  Residual-Control   Outer-Iter.   Inner-Iter.     Column Row Layer    Maximum-Head-Change  Column Row Layer    Maximum-Flux-Residual          L2-NORM 
          0                 1           2             2    1     1       0.1395555446E-02       2    1    1         0.7247385784E-01      0.1111798520E+00
          0                 2           2             2    1     1      -0.1357495641E-03       2    1    1        -0.7247390751E-02      0.1111795212E-01
          0                 3           1             2    1     1       0.9244041685E-05       2    1    1         0.5073175206E-03      0.7782531886E-03

    ------------------------------------------------
       NWT REQUIRED            3 OUTER ITERATIONS 
       AND A TOTAL OF          5 INNER ITERATIONS.
    ------------------------------------------------

 NO OUTPUT CONTROL FOR STRESS PERIOD   15   TIME STEP   20
 
 SOLVING FOR HEAD 
                                                   Max.-Head-Change                         Max.-Flux-Residual
  Residual-Control   Outer-Iter.   Inner-Iter.     Column Row Layer    Maximum-Head-Change  Column Row Layer    Maximum-Flux-Residual          L2-NORM 
          0                 1           2             2    1     1       0.1393575996E-02       2    1    1         0.7237068959E-01      0.1109880469E+00
          0                 2           2             2    1     1      -0.1355570172E-03       2    1    1        -0.7237073895E-02      0.1109876528E-01
          0                 3           1             2    1     1       0.9230929749E-05       2    1    1         0.5065953331E-03      0.7769082770E-03

    ------------------------------------------------
       NWT REQUIRED            3 OUTER ITERATIONS 
       AND A TOTAL OF          5 INNER ITERATIONS.
    ------------------------------------------------

 NO OUTPUT CONTROL FOR STRESS PERIOD   15   TIME STEP   21
 
 SOLVING FOR HEAD 
                                                   Max.-Head-Change                         Max.-Flux-Residual
  Residual-Control   Outer-Iter.   Inner-Iter.     Column Row Layer    Maximum-Head-Change  Column Row Layer    Maximum-Flux-Residual          L2-NORM 
          0                 1           2             2    1     1       0.1391585420E-02       2    1    1         0.7226695201E-01      0.1108001622E+00
          0                 2           2             2    1     1      -0.1353633884E-03       2    1    1        -0.7226700122E-02      0.1108001401E-01
          0                 3           1             2    1     1       0.9217744445E-05       2    1    1         0.5058691836E-03      0.7755904616E-03

    ------------------------------------------------
       NWT REQUIRED            3 OUTER ITERATIONS 
       AND A TOTAL OF          5 INNER ITERATIONS.
    ------------------------------------------------

 NO OUTPUT CONTROL FOR STRESS PERIOD   15   TIME STEP   22
 
 SOLVING FOR HEAD 
                                                   Max.-Head-Change                         Max.-Flux-Residual
  Residual-Control   Outer-Iter.   Inner-Iter.     Column Row Layer    Maximum-Head-Change  Column Row Layer    Maximum-Flux-Residual          L2-NORM 
          0                 1           2             2    1     1       0.1389605058E-02       2    1    1         0.7216374265E-01      0.1106166031E+00
          0                 2           2             2    1     1      -0.1351707530E-03       2    1    1        -0.7216379169E-02      0.1106163077E-01
          0                 3           1             2    1     1       0.9204626829E-05       2    1    1         0.5051467136E-03      0.7743098635E-03

    ------------------------------------------------
       NWT REQUIRED            3 OUTER ITERATIONS 
       AND A TOTAL OF          5 INNER ITERATIONS.
    ------------------------------------------------

 NO OUTPUT CONTROL FOR STRESS PERIOD   15   TIME STEP   23
 
 SOLVING FOR HEAD 
                                                   Max.-Head-Change                         Max.-Flux-Residual
  Residual-Control   Outer-Iter.   Inner-Iter.     Column Row Layer    Maximum-Head-Change  Column Row Layer    Maximum-Flux-Residual          L2-NORM 
          0                 1           2             2    1     1       0.1387655952E-02       2    1    1         0.7206216813E-01      0.1104339481E+00
          0                 2           2             2    1     1      -0.1349811577E-03       2    1    1        -0.7206221701E-02      0.1104336583E-01
          0                 3           1             2    1     1       0.9191716302E-05       2    1    1         0.5044356922E-03      0.7730419345E-03

    ------------------------------------------------
       NWT REQUIRED            3 OUTER ITERATIONS 
       AND A TOTAL OF          5 INNER ITERATIONS.
    ------------------------------------------------

 NO OUTPUT CONTROL FOR STRESS PERIOD   15   TIME STEP   24
 
 SOLVING FOR HEAD 
                                                   Max.-Head-Change                         Max.-Flux-Residual
  Residual-Control   Outer-Iter.   Inner-Iter.     Column Row Layer    Maximum-Head-Change  Column Row Layer    Maximum-Flux-Residual          L2-NORM 
          0                 1           2             2    1     1       0.1385695521E-02       2    1    1         0.7196000369E-01      0.1102603181E+00
          0                 2           2             2    1     1      -0.1347904608E-03       2    1    1        -0.7196005220E-02      0.1102599157E-01
          0                 3           1             2    1     1       0.9178730513E-05       2    1    1         0.5037205471E-03      0.7718139983E-03

    ------------------------------------------------
       NWT REQUIRED            3 OUTER ITERATIONS 
       AND A TOTAL OF          5 INNER ITERATIONS.
    ------------------------------------------------

 NO OUTPUT CONTROL FOR STRESS PERIOD   15   TIME STEP   25
 
 SOLVING FOR HEAD 
                                                   Max.-Head-Change                         Max.-Flux-Residual
  Residual-Control   Outer-Iter.   Inner-Iter.     Column Row Layer    Maximum-Head-Change  Column Row Layer    Maximum-Flux-Residual          L2-NORM 
          0                 1           2             2    1     1       0.1383744889E-02       2    1    1         0.7185835732E-01      0.1100839063E+00
          0                 2           2             2    1     1      -0.1346007168E-03       2    1    1        -0.7185840552E-02      0.1100835439E-01
          0                 3           1             2    1     1       0.9165809335E-05       2    1    1         0.5030090039E-03      0.7705777162E-03

    ------------------------------------------------
       NWT REQUIRED            3 OUTER ITERATIONS 
       AND A TOTAL OF          5 INNER ITERATIONS.
    ------------------------------------------------

 NO OUTPUT CONTROL FOR STRESS PERIOD   15   TIME STEP   26
 
 SOLVING FOR HEAD 
                                                   Max.-Head-Change                         Max.-Flux-Residual
  Residual-Control   Outer-Iter.   Inner-Iter.     Column Row Layer    Maximum-Head-Change  Column Row Layer    Maximum-Flux-Residual          L2-NORM 
          0                 1           2             2    1     1       0.1381825328E-02       2    1    1         0.7175832444E-01      0.1099135275E+00
          0                 2           2             2    1     1      -0.1344139955E-03       2    1    1        -0.7175837246E-02      0.1099131623E-01
          0                 3           1             2    1     1       0.9153094301E-05       2    1    1         0.5023087655E-03      0.7693888407E-03

    ------------------------------------------------
       NWT REQUIRED            3 OUTER ITERATIONS 
       AND A TOTAL OF          5 INNER ITERATIONS.
    ------------------------------------------------

 NO OUTPUT CONTROL FOR STRESS PERIOD   15   TIME STEP   27
 
 SOLVING FOR HEAD 
                                                   Max.-Head-Change                         Max.-Flux-Residual
  Residual-Control   Outer-Iter.   Inner-Iter.     Column Row Layer    Maximum-Head-Change  Column Row Layer    Maximum-Flux-Residual          L2-NORM 
          0                 1           2             2    1     1       0.1379894061E-02       2    1    1         0.7165769177E-01      0.1097461788E+00
          0                 2           2             2    1     1      -0.1342261356E-03       2    1    1        -0.7165773947E-02      0.1097458199E-01
          0                 3           1             2    1     1       0.9140302110E-05       2    1    1         0.5016043552E-03      0.7682130675E-03

    ------------------------------------------------
       NWT REQUIRED            3 OUTER ITERATIONS 
       AND A TOTAL OF          5 INNER ITERATIONS.
    ------------------------------------------------

 NO OUTPUT CONTROL FOR STRESS PERIOD   15   TIME STEP   28
 
 SOLVING FOR HEAD 
                                                   Max.-Head-Change                         Max.-Flux-Residual
  Residual-Control   Outer-Iter.   Inner-Iter.     Column Row Layer    Maximum-Head-Change  Column Row Layer    Maximum-Flux-Residual          L2-NORM 
          0                 1           2             2    2     1       0.2208212017E-02       2    2    1         0.1151590784E+00      0.2315136580E+00
          0                 2           2             2    2     1      -0.2147990275E-03       2    2    1        -0.1151592207E-01      0.2315135974E-01
          0                 3           1             2    2     1       0.1462701526E-04       2    2    1         0.8061147590E-03      0.1620596609E-02

    ------------------------------------------------
       NWT REQUIRED            3 OUTER ITERATIONS 
       AND A TOTAL OF          5 INNER ITERATIONS.
    ------------------------------------------------

 NO OUTPUT CONTROL FOR STRESS PERIOD   15   TIME STEP   29
 
 SOLVING FOR HEAD 
                                                   Max.-Head-Change                         Max.-Flux-Residual
  Residual-Control   Outer-Iter.   Inner-Iter.     Column Row Layer    Maximum-Head-Change  Column Row Layer    Maximum-Flux-Residual          L2-NORM 
          0                 1           2             2    2     1       0.6907613382E-02       2    2    1         0.3608296461E+00      0.6479758137E+00
          0                 2           2             2    2     1      -0.6719246752E-03       2    2    1        -0.3608311383E-01      0.6479772313E-01
          0                 3           1             2    2     1       0.4575555750E-04       2    2    1         0.2525817650E-02      0.4535841545E-02

    ------------------------------------------------
       NWT REQUIRED            3 OUTER ITERATIONS 
       AND A TOTAL OF          5 INNER ITERATIONS.
    ------------------------------------------------

 NO OUTPUT CONTROL FOR STRESS PERIOD   15   TIME STEP   30



 STREAM LISTING     PERIOD     15   STEP       30

 LAYER ROW COL. STREAM  RCH.  FLOW INTO     FLOW TO   FLOW OUT OF   OVRLND.     DIRECT     STREAM       STREAM     STREAM     STREAM   STREAMBED  STREAMBED
                SEG.NO.  NO.  STRM. RCH.    AQUIFER    STRM. RCH.    RUNOFF     PRECIP       ET          HEAD       DEPTH      WIDTH   CONDCTNC.   GRADIENT

   1    1    1     1     1    7.3501E+01  4.1745E-01   7.3084E+01  0.000E+00  0.000E+00  0.000E+00  1.09473E+03  1.681E+00  1.982E+01  8.917E-02  1.560E+00
   1    2    2     1     2    7.3084E+01  6.4666E-01   7.2437E+01  0.000E+00  0.000E+00  0.000E+00  1.08973E+03  1.675E+00  1.976E+01  1.383E-01  1.558E+00
   1    3    3     1     3    7.2437E+01  5.5167E-01   7.1885E+01  0.000E+00  0.000E+00  0.000E+00  1.08409E+03  1.669E+00  1.969E+01  1.182E-01  1.556E+00
   1    3    4     1     4    7.1885E+01  5.0815E-01   7.1377E+01  0.000E+00  0.000E+00  0.000E+00  1.07907E+03  1.663E+00  1.963E+01  1.090E-01  1.554E+00
   1    4    5     2     1    6.9377E+01  4.0746E-01   6.8970E+01  0.000E+00  0.000E+00  0.000E+00  1.07416E+03  2.224E+00  1.200E+01  7.800E-02  1.741E+00
   1    5    6     2     2    6.8970E+01  3.1301E-01   6.8657E+01  0.000E+00  0.000E+00  0.000E+00  1.06873E+03  2.217E+00  1.200E+01  6.000E-02  1.739E+00
   1    6    6     2     3    6.8657E+01  3.1265E-01   6.8344E+01  0.000E+00  0.000E+00  0.000E+00  1.06400E+03  2.211E+00  1.200E+01  6.000E-02  1.737E+00
   1    7    6     2     4    6.8344E+01  3.1229E-01   6.8032E+01  0.000E+00  0.000E+00  0.000E+00  1.05928E+03  2.205E+00  1.200E+01  6.000E-02  1.735E+00
   1    8    6     2     5    6.8032E+01  3.1192E-01   6.7720E+01  0.000E+00  0.000E+00  0.000E+00  1.05456E+03  2.199E+00  1.200E+01  6.000E-02  1.733E+00
   1    3    5     3     1    2.0000E+00  2.8252E-01   1.7175E+00  0.000E+00  0.000E+00  0.000E+00  1.07555E+03  1.909E+00  9.636E+00  7.227E-02  1.955E+00
   1    3    6     3     2    1.7175E+00  2.4905E-01   1.4684E+00  0.000E+00  0.000E+00  0.000E+00  1.07264E+03  1.727E+00  8.909E+00  6.682E-02  1.864E+00
   1    3    7     3     3    1.4684E+00  1.9718E-01   1.2712E+00  0.000E+00  0.000E+00  0.000E+00  1.06987E+03  1.555E+00  8.218E+00  5.547E-02  1.777E+00
   1    4    8     3     4    1.2712E+00  2.2567E-01   1.0456E+00  0.000E+00  0.000E+00  0.000E+00  1.06682E+03  1.364E+00  7.455E+00  6.709E-02  1.682E+00
   1    5    8     3     5    1.0456E+00  1.5790E-01   8.8768E-01  0.000E+00  0.000E+00  0.000E+00  1.06362E+03  1.164E+00  6.655E+00  4.991E-02  1.582E+00
   1    6    8     3     6    8.8768E-01  5.5980E-02   8.3170E-01  0.000E+00  0.000E+00  0.000E+00  1.06158E+03  1.036E+00  6.145E+00  1.844E-02  1.518E+00
   1    5   10     4     1    1.0000E+01  9.0919E-02   9.9091E+00  0.000E+00  0.000E+00  0.000E+00  1.07836E+03  6.368E-01  1.000E+01  2.500E-02  1.212E+00
   1    5    9     4     2    9.9091E+00  1.8158E-01   9.7275E+00  0.000E+00  0.000E+00  0.000E+00  1.07154E+03  6.315E-01  1.000E+01  5.000E-02  1.211E+00
   1    6    8     4     3    9.7275E+00  1.2689E-01   9.6006E+00  0.000E+00  0.000E+00  0.000E+00  1.06381E+03  6.256E-01  1.000E+01  3.500E-02  1.209E+00
   1    6    8     5     1    1.0432E+01  2.2686E-01   1.0205E+01  0.000E+00  0.000E+00  0.000E+00  1.05868E+03  6.790E-01  1.542E+01  6.166E-02  1.226E+00
   1    7    7     5     2    1.0205E+01  2.7894E-01   9.9265E+00  0.000E+00  0.000E+00  0.000E+00  1.05417E+03  6.732E-01  1.519E+01  7.594E-02  1.224E+00
   1    8    7     5     3    9.9265E+00  1.9221E-01   9.7343E+00  0.000E+00  0.000E+00  0.000E+00  1.04992E+03  6.676E-01  1.497E+01  5.241E-02  1.223E+00
   1    8    6     5     4    9.7343E+00  1.3577E-01   9.5985E+00  0.000E+00  0.000E+00  0.000E+00  1.04691E+03  6.637E-01  1.482E+01  3.706E-02  1.221E+00
   1    9    6     6     1    9.5985E+00  2.2097E-01   9.3776E+00  0.000E+00  0.000E+00  0.000E+00  1.04341E+03  6.828E-01  1.200E+01  6.000E-02  1.228E+00
   1   10    7     6     2    9.3776E+00  2.2039E-01   9.1572E+00  0.000E+00  0.000E+00  0.000E+00  1.03885E+03  6.732E-01  1.200E+01  6.000E-02  1.224E+00
   1   11    7     6     3    9.1572E+00  2.1981E-01   8.9374E+00  0.000E+00  0.000E+00  0.000E+00  1.03430E+03  6.636E-01  1.200E+01  6.000E-02  1.221E+00
   1   12    7     6     4    8.9374E+00  2.1923E-01   8.7181E+00  0.000E+00  0.000E+00  0.000E+00  1.02974E+03  6.539E-01  1.200E+01  6.000E-02  1.218E+00
   1   13    7     6     5    8.7181E+00 -1.1181E-01   8.8299E+00  0.000E+00  0.000E+00  0.000E+00  1.02656E+03  6.515E-01  1.200E+01  2.400E-01 -1.553E-01
   1   14    9     7     1    1.5000E+02  1.3411E+00   1.4866E+02  0.000E+00  0.000E+00  0.000E+00  1.03987E+03  2.288E+00  5.529E+01  5.593E-01  7.993E-01
   1   13    8     7     2    1.4866E+02  1.8457E+00   1.4681E+02  0.000E+00  0.000E+00  0.000E+00  1.03478E+03  2.279E+00  5.526E+01  6.148E-01  1.001E+00
   1   13    7     7     3    1.4681E+02  1.4873E+00   1.4533E+02  0.000E+00  0.000E+00  0.000E+00  1.02969E+03  2.270E+00  5.522E+01  5.584E-01  8.877E-01
   1   13    6     8     1    1.5416E+02  8.3908E-01   1.5332E+02  0.000E+00  0.000E+00  0.000E+00  1.02472E+03  2.843E+00  4.122E+01  4.201E-01  6.658E-01
   1   13    5     8     2    1.5332E+02  1.0940E-01   1.5321E+02  0.000E+00  0.000E+00  0.000E+00  1.01846E+03  2.840E+00  4.118E+01  4.196E-01  8.691E-02
   1   13    4     8     3    1.5321E+02 -2.6488E+00   1.5586E+02  0.000E+00  0.000E+00  0.000E+00  1.01222E+03  2.848E+00  4.130E+01  4.209E+00 -2.098E-01
   1   13    3     8     4    1.5586E+02 -3.7348E+00   1.5959E+02  0.000E+00  0.000E+00  0.000E+00  1.00600E+03  2.870E+00  4.162E+01  4.241E+00 -2.935E-01
   1   13    2     8     5    1.5959E+02 -2.5966E+00   1.6219E+02  0.000E+00  0.000E+00  0.000E+00  9.99767E+02  2.892E+00  4.193E+01  4.273E+00 -2.026E-01
   1   13    1     8     6    1.6219E+02 -1.9802E+00   1.6417E+02  0.000E+00  0.000E+00  0.000E+00  9.94782E+02  2.907E+00  4.215E+01  2.577E+00 -2.561E-01
   1    8    6     9     1    6.7720E+01  0.0000E+00   6.7720E+01  0.000E+00  0.000E+00  0.000E+00  1.08589E+03  7.140E+00  4.000E+00  0.000E+00  3.380E+00
   1    8    5     9     2    6.7720E+01  0.0000E+00   6.7720E+01  0.000E+00  0.000E+00  0.000E+00  1.08539E+03  7.140E+00  4.000E+00  0.000E+00  3.380E+00





UNSATURATED ZONE PACKAGE VOLUMETRIC BUDGET FOR  TIME STEP    30 STRESS PERIOD   15
  ------------------------------------------------------------------------------



     CUMULATIVE VOLUMES      L**3       RATES FOR THIS TIME STEP      L**3/T
     ------------------                 ------------------------

           IN:                                      IN:
           ---                                      ---
        INFILTRATION =    31278172.2184          INFILTRATION =           0.8475

          OUT:                                     OUT:
          ----                                     ----
              UZF ET =    30095439.1719                UZF ET =           0.7500
        UZF RECHARGE =       73224.0000          UZF RECHARGE =       0.0000E+00

            IN - OUT =     1109509.0464              IN - OUT =       9.7500E-02

          STORAGE:                                 STORAGE:
          --------                                 --------
      STORAGE CHANGE =     1109509.1894        STORAGE CHANGE =       9.7500E-02

 PERCENT DISCREPANCY IS DIFFERENCE BETWEEN IN-OUT MINUS CHANGE IN STORAGE
 DIVIDED BY THE AVERAGE OF IN AND OUT TIMES 100

 PERCENT DISCREPANCY =           0.00     PERCENT DISCREPANCY =           0.00






1
  VOLUMETRIC BUDGET FOR ENTIRE MODEL AT END OF TIME STEP   30, STRESS PERIOD  15
  ------------------------------------------------------------------------------

     CUMULATIVE VOLUMES      L**3       RATES FOR THIS TIME STEP      L**3/T
     ------------------                 ------------------------

           IN:                                      IN:
           ---                                      ---
             STORAGE     =    17377212.0000               STORAGE     =           0.2859
       CONSTANT HEAD     =           0.0000         CONSTANT HEAD     =           0.0000
     HEAD DEP BOUNDS     =    10551902.0000       HEAD DEP BOUNDS     =           0.2861
      STREAM LEAKAGE     =   430692288.0000        STREAM LEAKAGE     =          12.6857
        UZF RECHARGE     =       73223.9531          UZF RECHARGE     =           0.0000
               GW ET     =           0.0000                 GW ET     =           0.0000
     SURFACE LEAKAGE     =           0.0000       SURFACE LEAKAGE     =           0.0000

                TOTAL IN =   458694624.0000                  TOTAL IN =          13.2578

          OUT:                                     OUT:
          ----                                     ----
             STORAGE     =    38578180.0000               STORAGE     =           1.8991
       CONSTANT HEAD     =           0.0000         CONSTANT HEAD     =           0.0000
     HEAD DEP BOUNDS     =    10589945.0000       HEAD DEP BOUNDS     =           0.2869
      STREAM LEAKAGE     =   409532320.0000        STREAM LEAKAGE     =          11.0722
        UZF RECHARGE     =           0.0000          UZF RECHARGE     =           0.0000
               GW ET     =           0.0000                 GW ET     =           0.0000
     SURFACE LEAKAGE     =           0.0000       SURFACE LEAKAGE     =           0.0000

               TOTAL OUT =   458700448.0000                 TOTAL OUT =          13.2582

                IN - OUT =       -5824.0000                  IN - OUT =      -4.5872E-04

     PERCENT DISCREPANCY =          -0.00         PERCENT DISCREPANCY =          -0.00






         TIME SUMMARY AT END OF TIME STEP   30 IN STRESS PERIOD   15
                    SECONDS     MINUTES      HOURS       DAYS        YEARS
                    -----------------------------------------------------------
   TIME STEP LENGTH  87667.      1461.1      24.352      1.0147     2.77799E-03
 STRESS PERIOD TIME 2.63000E+06  43833.      730.56      30.440     8.33397E-02
         TOTAL TIME 3.69063E+07 6.15106E+05  10252.      427.16      1.1695    
1
1
                            STRESS PERIOD NO.   16, LENGTH =   2630000.    
                            -----------------------------------------------

                              NUMBER OF TIME STEPS =    30

                               MULTIPLIER FOR DELT =     1.000

                            INITIAL TIME STEP SIZE =   87666.66    

 REUSING NON-PARAMETER GHB CELLS FROM LAST STRESS PERIOD

      2 GHB CELLS

 REUSING STREAM SEGMENT DATA FROM LAST STRESS PERIOD



            AREAL INFILTRATION RATE
 READING ON UNIT   19 WITH FORMAT: (FREE)              

            1           2           3           4           5           6           7           8           9          10
 ........................................................................................................................
   1   1.0000E-10  2.0000E-10   0.000       0.000       0.000       0.000       0.000       0.000       0.000       0.000    
   2   2.0000E-10  1.0000E-10  2.0000E-10   0.000       0.000      8.0000E-10  8.0000E-10  5.0000E-10   0.000       0.000    
   3    0.000      5.0000E-10  1.0000E-10  1.0000E-10  8.0000E-10  8.0000E-10  5.0000E-10  5.0000E-10   0.000       0.000    
   4   8.0000E-10  5.0000E-10  1.0000E-10  1.0000E-10  1.0000E-10  1.0000E-10  1.0000E-10  1.0000E-10  2.0000E-10   0.000    
   5   8.0000E-10  5.0000E-10  1.0000E-10  1.0000E-10  1.0000E-10  1.0000E-10  1.0000E-10  1.0000E-10  1.0000E-10  1.0000E-10
   6   8.0000E-10  5.0000E-10  5.0000E-10  2.0000E-10  2.0000E-10  1.0000E-10  1.0000E-10  1.0000E-10  1.0000E-10  5.0000E-10
   7   8.0000E-10  5.0000E-10  5.0000E-10  2.0000E-10  2.0000E-10  1.0000E-10  1.0000E-10  2.0000E-10  2.0000E-10   0.000    
   8    0.000      5.0000E-10  5.0000E-10  2.0000E-10  2.0000E-10  1.0000E-10  1.0000E-10  2.0000E-10  5.0000E-10   0.000    
   9    0.000      5.0000E-10  5.0000E-10  2.0000E-10  2.0000E-10  1.0000E-10  1.0000E-10  2.0000E-10  5.0000E-10   0.000    
  10    0.000      5.0000E-10  5.0000E-10  2.0000E-10  2.0000E-10  1.0000E-10  1.0000E-10  2.0000E-10  5.0000E-10  8.0000E-10
  11    0.000      1.0000E-10  1.0000E-10  1.0000E-10  1.0000E-10  1.0000E-10  1.0000E-10  2.0000E-10  5.0000E-10   0.000    
  12   1.0000E-10  1.0000E-10  1.0000E-10  1.0000E-10  1.0000E-10  1.0000E-10  1.0000E-10  1.0000E-10  2.0000E-10   0.000    
  13   1.0000E-10  1.0000E-10  2.0000E-10  2.0000E-10  2.0000E-10  2.0000E-10  2.0000E-10  1.0000E-10  1.0000E-10   0.000    
  14    0.000      2.0000E-10  5.0000E-10  5.0000E-10  5.0000E-10  5.0000E-10  5.0000E-10  2.0000E-10  1.0000E-10   0.000    
  15    0.000       0.000      8.0000E-10  8.0000E-10  8.0000E-10  8.0000E-10   0.000       0.000       0.000       0.000    

                  ET RATE =  5.000000E-10

 USING ET EXTINCTION DEPTH FROM PREVIOUS STRESS PERIOD. CURRENT PERIOD IS:      16

 USING EXTINCTION WATER CONTENT FROM PREVIOUS STRESS PERIOD. CURRENT PERIOD IS:      16

 USING AIR ENTRY PRESSURE FROM PREVIOUS STRESS PERIOD. CURRENT PERIOD IS:      16

 USING ROOT PRESSURE HEAD FROM PREVIOUS STRESS PERIOD. CURRENT PERIOD IS:      16

 USING ROOT ACTIVITY FROM PREVIOUS STRESS PERIOD. CURRENT PERIOD IS:      16
 
 SOLVING FOR HEAD 
                                                   Max.-Head-Change                         Max.-Flux-Residual
  Residual-Control   Outer-Iter.   Inner-Iter.     Column Row Layer    Maximum-Head-Change  Column Row Layer    Maximum-Flux-Residual          L2-NORM 
          0                 1           2             2    2     1       0.6861280010E-02       2    2    1         0.3583914116E+00      0.6413916101E+00
          0                 2           2             2    2     1      -0.6674176599E-03       2    2    1        -0.3583928764E-01      0.6413929764E-01
          0                 3           1             2    2     1       0.4544864693E-04       2    2    1         0.2508749838E-02      0.4489752108E-02

    ------------------------------------------------
       NWT REQUIRED            3 OUTER ITERATIONS 
       AND A TOTAL OF          5 INNER ITERATIONS.
    ------------------------------------------------

 NO OUTPUT CONTROL FOR STRESS PERIOD   16   TIME STEP    1
 
 SOLVING FOR HEAD 
                                                   Max.-Head-Change                         Max.-Flux-Residual
  Residual-Control   Outer-Iter.   Inner-Iter.     Column Row Layer    Maximum-Head-Change  Column Row Layer    Maximum-Flux-Residual          L2-NORM 
          0                 1           2             2    2     1       0.6815540299E-02       2    2    1         0.3559845171E+00      0.6351611292E+00
          0                 2           2             2    2     1      -0.6629683923E-03       2    2    1        -0.3559859550E-01      0.6351624505E-01
          0                 3           1             2    2     1       0.4514566846E-04       2    2    1         0.2491901390E-02      0.4446135297E-02

    ------------------------------------------------
       NWT REQUIRED            3 OUTER ITERATIONS 
       AND A TOTAL OF          5 INNER ITERATIONS.
    ------------------------------------------------

 NO OUTPUT CONTROL FOR STRESS PERIOD   16   TIME STEP    2
 
 SOLVING FOR HEAD 
                                                   Max.-Head-Change                         Max.-Flux-Residual
  Residual-Control   Outer-Iter.   Inner-Iter.     Column Row Layer    Maximum-Head-Change  Column Row Layer    Maximum-Flux-Residual          L2-NORM 
          0                 1           2             2    2     1       0.6770471761E-02       2    2    1         0.3536129685E+00      0.6292577927E+00
          0                 2           2             2    2     1      -0.6585844133E-03       2    2    1        -0.3536143803E-01      0.6292590727E-01
          0                 3           1             2    2     1       0.4484713613E-04       2    2    1         0.2475300400E-02      0.4404813926E-02

    ------------------------------------------------
       NWT REQUIRED            3 OUTER ITERATIONS 
       AND A TOTAL OF          5 INNER ITERATIONS.
    ------------------------------------------------

 NO OUTPUT CONTROL FOR STRESS PERIOD   16   TIME STEP    3
 
 SOLVING FOR HEAD 
                                                   Max.-Head-Change                         Max.-Flux-Residual
  Residual-Control   Outer-Iter.   Inner-Iter.     Column Row Layer    Maximum-Head-Change  Column Row Layer    Maximum-Flux-Residual          L2-NORM 
          0                 1           2             2    2     1       0.6725975902E-02       2    2    1         0.3512716536E+00      0.6236532367E+00
          0                 2           2             2    2     1      -0.6542561406E-03       2    2    1        -0.3512730398E-01      0.6236544942E-01
          0                 3           1             2    2     1       0.4455239721E-04       2    2    1         0.2458911033E-02      0.4365581136E-02

    ------------------------------------------------
       NWT REQUIRED            3 OUTER ITERATIONS 
       AND A TOTAL OF          5 INNER ITERATIONS.
    ------------------------------------------------

 NO OUTPUT CONTROL FOR STRESS PERIOD   16   TIME STEP    4
 
 SOLVING FOR HEAD 
                                                   Max.-Head-Change                         Max.-Flux-Residual
  Residual-Control   Outer-Iter.   Inner-Iter.     Column Row Layer    Maximum-Head-Change  Column Row Layer    Maximum-Flux-Residual          L2-NORM 
          0                 1           2             2    2     1       0.6682129847E-02       2    2    1         0.3489645971E+00      0.6183194263E+00
          0                 2           2             2    2     1      -0.6499910770E-03       2    2    1        -0.3489659581E-01      0.6183206489E-01
          0                 3           1             2    2     1       0.4426196265E-04       2    2    1         0.2442761480E-02      0.4328244202E-02

    ------------------------------------------------
       NWT REQUIRED            3 OUTER ITERATIONS 
       AND A TOTAL OF          5 INNER ITERATIONS.
    ------------------------------------------------

 NO OUTPUT CONTROL FOR STRESS PERIOD   16   TIME STEP    5
 
 SOLVING FOR HEAD 
                                                   Max.-Head-Change                         Max.-Flux-Residual
  Residual-Control   Outer-Iter.   Inner-Iter.     Column Row Layer    Maximum-Head-Change  Column Row Layer    Maximum-Flux-Residual          L2-NORM 
          0                 1           2             2    2     1       0.6638923235E-02       2    2    1         0.3466912322E+00      0.6132446223E+00
          0                 2           2             2    2     1      -0.6457882151E-03       2    2    1        -0.3466925689E-01      0.6132458017E-01
          0                 3           1             2    2     1       0.4397576384E-04       2    2    1         0.2426847777E-02      0.4292721399E-02

    ------------------------------------------------
       NWT REQUIRED            3 OUTER ITERATIONS 
       AND A TOTAL OF          5 INNER ITERATIONS.
    ------------------------------------------------

 NO OUTPUT CONTROL FOR STRESS PERIOD   16   TIME STEP    6
 
 SOLVING FOR HEAD 
                                                   Max.-Head-Change                         Max.-Flux-Residual
  Residual-Control   Outer-Iter.   Inner-Iter.     Column Row Layer    Maximum-Head-Change  Column Row Layer    Maximum-Flux-Residual          L2-NORM 
          0                 1           2             2    2     1       0.6596258510E-02       2    2    1         0.3444464551E+00      0.6084034853E+00
          0                 2           2             2    2     1      -0.6416380647E-03       2    2    1        -0.3444477680E-01      0.6084046423E-01
          0                 3           1             2    2     1       0.4369315442E-04       2    2    1         0.2411134181E-02      0.4258833334E-02

    ------------------------------------------------
       NWT REQUIRED            3 OUTER ITERATIONS 
       AND A TOTAL OF          5 INNER ITERATIONS.
    ------------------------------------------------

 NO OUTPUT CONTROL FOR STRESS PERIOD   16   TIME STEP    7
 
 SOLVING FOR HEAD 
                                                   Max.-Head-Change                         Max.-Flux-Residual
  Residual-Control   Outer-Iter.   Inner-Iter.     Column Row Layer    Maximum-Head-Change  Column Row Layer    Maximum-Flux-Residual          L2-NORM 
          0                 1           2             2    2     1       0.6554301061E-02       2    2    1         0.3422389074E+00      0.6037779408E+00
          0                 2           2             2    2     1      -0.6375567136E-03       2    2    1        -0.3422401970E-01      0.6037791915E-01
          0                 3           1             2    2     1       0.4341522947E-04       2    2    1         0.2395681188E-02      0.4226569739E-02

    ------------------------------------------------
       NWT REQUIRED            3 OUTER ITERATIONS 
       AND A TOTAL OF          5 INNER ITERATIONS.
    ------------------------------------------------

 NO OUTPUT CONTROL FOR STRESS PERIOD   16   TIME STEP    8
 
 SOLVING FOR HEAD 
                                                   Max.-Head-Change                         Max.-Flux-Residual
  Residual-Control   Outer-Iter.   Inner-Iter.     Column Row Layer    Maximum-Head-Change  Column Row Layer    Maximum-Flux-Residual          L2-NORM 
          0                 1           2             2    2     1       0.6512777464E-02       2    2    1         0.3400543306E+00      0.5993555205E+00
          0                 2           2             2    2     1      -0.6335175658E-03       2    2    1        -0.3400555976E-01      0.5993566218E-01
          0                 3           1             2    2     1       0.4314017892E-04       2    2    1         0.2380389018E-02      0.4195496827E-02

    ------------------------------------------------
       NWT REQUIRED            3 OUTER ITERATIONS 
       AND A TOTAL OF          5 INNER ITERATIONS.
    ------------------------------------------------

 NO OUTPUT CONTROL FOR STRESS PERIOD   16   TIME STEP    9
 
 SOLVING FOR HEAD 
                                                   Max.-Head-Change                         Max.-Flux-Residual
  Residual-Control   Outer-Iter.   Inner-Iter.     Column Row Layer    Maximum-Head-Change  Column Row Layer    Maximum-Flux-Residual          L2-NORM 
          0                 1           2             2    2     1       0.6471942328E-02       2    2    1         0.3379059492E+00      0.5951202273E+00
          0                 2           2             2    2     1      -0.6295453870E-03       2    2    1        -0.3379071940E-01      0.5951213138E-01
          0                 3           1             2    2     1       0.4286968882E-04       2    2    1         0.2365350204E-02      0.4165849185E-02

    ------------------------------------------------
       NWT REQUIRED            3 OUTER ITERATIONS 
       AND A TOTAL OF          5 INNER ITERATIONS.
    ------------------------------------------------

 NO OUTPUT CONTROL FOR STRESS PERIOD   16   TIME STEP   10
 
 SOLVING FOR HEAD 
                                                   Max.-Head-Change                         Max.-Flux-Residual
  Residual-Control   Outer-Iter.   Inner-Iter.     Column Row Layer    Maximum-Head-Change  Column Row Layer    Maximum-Flux-Residual          L2-NORM 
          0                 1           2             2    2     1       0.6431609922E-02       2    2    1         0.3357841295E+00      0.5910588505E+00
          0                 2           2             2    2     1      -0.6256221111E-03       2    2    1        -0.3357853527E-01      0.5910598809E-01
          0                 3           1             2    2     1       0.4260252848E-04       2    2    1         0.2350497330E-02      0.4137417252E-02

    ------------------------------------------------
       NWT REQUIRED            3 OUTER ITERATIONS 
       AND A TOTAL OF          5 INNER ITERATIONS.
    ------------------------------------------------

 NO OUTPUT CONTROL FOR STRESS PERIOD   16   TIME STEP   11
 
 SOLVING FOR HEAD 
                                                   Max.-Head-Change                         Max.-Flux-Residual
  Residual-Control   Outer-Iter.   Inner-Iter.     Column Row Layer    Maximum-Head-Change  Column Row Layer    Maximum-Flux-Residual          L2-NORM 
          0                 1           2             2    2     1       0.6391858976E-02       2    2    1         0.3336929428E+00      0.5871614823E+00
          0                 2           2             2    2     1      -0.6217553957E-03       2    2    1        -0.3336941448E-01      0.5871624992E-01
          0                 3           1             2    2     1       0.4233921976E-04       2    2    1         0.2335858887E-02      0.4110138978E-02

    ------------------------------------------------
       NWT REQUIRED            3 OUTER ITERATIONS 
       AND A TOTAL OF          5 INNER ITERATIONS.
    ------------------------------------------------

 NO OUTPUT CONTROL FOR STRESS PERIOD   16   TIME STEP   12
 
 SOLVING FOR HEAD 
                                                   Max.-Head-Change                         Max.-Flux-Residual
  Residual-Control   Outer-Iter.   Inner-Iter.     Column Row Layer    Maximum-Head-Change  Column Row Layer    Maximum-Flux-Residual          L2-NORM 
          0                 1           2             2    2     1       0.6352679934E-02       2    2    1         0.3316319042E+00      0.5834131660E+00
          0                 2           2             2    2     1      -0.6179443119E-03       2    2    1        -0.3316330855E-01      0.5834141655E-01
          0                 3           1             2    2     1       0.4207969947E-04       2    2    1         0.2321431488E-02      0.4083899632E-02

    ------------------------------------------------
       NWT REQUIRED            3 OUTER ITERATIONS 
       AND A TOTAL OF          5 INNER ITERATIONS.
    ------------------------------------------------

 NO OUTPUT CONTROL FOR STRESS PERIOD   16   TIME STEP   13
 
 SOLVING FOR HEAD 
                                                   Max.-Head-Change                         Max.-Flux-Residual
  Residual-Control   Outer-Iter.   Inner-Iter.     Column Row Layer    Maximum-Head-Change  Column Row Layer    Maximum-Flux-Residual          L2-NORM 
          0                 1           2             2    2     1       0.6313976024E-02       2    2    1         0.3295959503E+00      0.5798147107E+00
          0                 2           2             2    2     1      -0.6141794459E-03       2    2    1        -0.3295971112E-01      0.5798156795E-01
          0                 3           1             2    2     1       0.4182332599E-04       2    2    1         0.2307179663E-02      0.4058708509E-02

    ------------------------------------------------
       NWT REQUIRED            3 OUTER ITERATIONS 
       AND A TOTAL OF          5 INNER ITERATIONS.
    ------------------------------------------------

 NO OUTPUT CONTROL FOR STRESS PERIOD   16   TIME STEP   14
 
 SOLVING FOR HEAD 
                                                   Max.-Head-Change                         Max.-Flux-Residual
  Residual-Control   Outer-Iter.   Inner-Iter.     Column Row Layer    Maximum-Head-Change  Column Row Layer    Maximum-Flux-Residual          L2-NORM 
          0                 1           2             2    2     1       0.6275826838E-02       2    2    1         0.3275891991E+00      0.5763411225E+00
          0                 2           2             2    2     1      -0.6104685404E-03       2    2    1        -0.3275903402E-01      0.5763420625E-01
          0                 3           1             2    2     1       0.4157062757E-04       2    2    1         0.2293132286E-02      0.4034395615E-02

    ------------------------------------------------
       NWT REQUIRED            3 OUTER ITERATIONS 
       AND A TOTAL OF          5 INNER ITERATIONS.
    ------------------------------------------------

 NO OUTPUT CONTROL FOR STRESS PERIOD   16   TIME STEP   15
 
 SOLVING FOR HEAD 
                                                   Max.-Head-Change                         Max.-Flux-Residual
  Residual-Control   Outer-Iter.   Inner-Iter.     Column Row Layer    Maximum-Head-Change  Column Row Layer    Maximum-Flux-Residual          L2-NORM 
          0                 1           2             2    2     1       0.6238223301E-02       2    2    1         0.3256112097E+00      0.5730017168E+00
          0                 2           2             2    2     1      -0.6068107127E-03       2    2    1        -0.3256123316E-01      0.5730026271E-01
          0                 3           1             2    2     1       0.4132154339E-04       2    2    1         0.2279286246E-02      0.4011019155E-02

    ------------------------------------------------
       NWT REQUIRED            3 OUTER ITERATIONS 
       AND A TOTAL OF          5 INNER ITERATIONS.
    ------------------------------------------------

 NO OUTPUT CONTROL FOR STRESS PERIOD   16   TIME STEP   16
 
 SOLVING FOR HEAD 
                                                   Max.-Head-Change                         Max.-Flux-Residual
  Residual-Control   Outer-Iter.   Inner-Iter.     Column Row Layer    Maximum-Head-Change  Column Row Layer    Maximum-Flux-Residual          L2-NORM 
          0                 1           2             2    2     1       0.6201069051E-02       2    2    1         0.3236569431E+00      0.5697773103E+00
          0                 2           2             2    2     1      -0.6031965886E-03       2    2    1        -0.3236580460E-01      0.5697781974E-01
          0                 3           1             2    2     1       0.4107543514E-04       2    2    1         0.2265606255E-02      0.3988447195E-02

    ------------------------------------------------
       NWT REQUIRED            3 OUTER ITERATIONS 
       AND A TOTAL OF          5 INNER ITERATIONS.
    ------------------------------------------------

 NO OUTPUT CONTROL FOR STRESS PERIOD   16   TIME STEP   17
 
 SOLVING FOR HEAD 
                                                   Max.-Head-Change                         Max.-Flux-Residual
  Residual-Control   Outer-Iter.   Inner-Iter.     Column Row Layer    Maximum-Head-Change  Column Row Layer    Maximum-Flux-Residual          L2-NORM 
          0                 1           2             2    2     1       0.6164443799E-02       2    2    1         0.3217305399E+00      0.5666577213E+00
          0                 2           2             2    2     1      -0.5996339223E-03       2    2    1        -0.3217316243E-01      0.5666586105E-01
          0                 3           1             2    2     1       0.4083283107E-04       2    2    1         0.2252121325E-02      0.3966610731E-02

    ------------------------------------------------
       NWT REQUIRED            3 OUTER ITERATIONS 
       AND A TOTAL OF          5 INNER ITERATIONS.
    ------------------------------------------------

 NO OUTPUT CONTROL FOR STRESS PERIOD   16   TIME STEP   18
 
 SOLVING FOR HEAD 
                                                   Max.-Head-Change                         Max.-Flux-Residual
  Residual-Control   Outer-Iter.   Inner-Iter.     Column Row Layer    Maximum-Head-Change  Column Row Layer    Maximum-Flux-Residual          L2-NORM 
          0                 1           2             2    2     1       0.6128338878E-02       2    2    1         0.3198315646E+00      0.5636530009E+00
          0                 2           2             2    2     1      -0.5961218704E-03       2    2    1        -0.3198326309E-01      0.5636538746E-01
          0                 3           1             2    2     1       0.4059367392E-04       2    2    1         0.2238828370E-02      0.3945575028E-02

    ------------------------------------------------
       NWT REQUIRED            3 OUTER ITERATIONS 
       AND A TOTAL OF          5 INNER ITERATIONS.
    ------------------------------------------------

 NO OUTPUT CONTROL FOR STRESS PERIOD   16   TIME STEP   19
 
 SOLVING FOR HEAD 
                                                   Max.-Head-Change                         Max.-Flux-Residual
  Residual-Control   Outer-Iter.   Inner-Iter.     Column Row Layer    Maximum-Head-Change  Column Row Layer    Maximum-Flux-Residual          L2-NORM 
          0                 1           2             2    2     1       0.6092746570E-02       2    2    1         0.3179595679E+00      0.5607378769E+00
          0                 2           2             2    2     1      -0.5926596828E-03       2    2    1        -0.3179606165E-01      0.5607387075E-01
          0                 3           1             2    2     1       0.4035791207E-04       2    2    1         0.2225724287E-02      0.3925172239E-02

    ------------------------------------------------
       NWT REQUIRED            3 OUTER ITERATIONS 
       AND A TOTAL OF          5 INNER ITERATIONS.
    ------------------------------------------------

 NO OUTPUT CONTROL FOR STRESS PERIOD   16   TIME STEP   20
 
 SOLVING FOR HEAD 
                                                   Max.-Head-Change                         Max.-Flux-Residual
  Residual-Control   Outer-Iter.   Inner-Iter.     Column Row Layer    Maximum-Head-Change  Column Row Layer    Maximum-Flux-Residual          L2-NORM 
          0                 1           2             2    2     1       0.6057570680E-02       2    2    1         0.3161095803E+00      0.5579254644E+00
          0                 2           2             2    2     1      -0.5892380015E-03       2    2    1        -0.3161106115E-01      0.5579262720E-01
          0                 3           1             2    2     1       0.4012490842E-04       2    2    1         0.2212774265E-02      0.3905481592E-02

    ------------------------------------------------
       NWT REQUIRED            3 OUTER ITERATIONS 
       AND A TOTAL OF          5 INNER ITERATIONS.
    ------------------------------------------------

 NO OUTPUT CONTROL FOR STRESS PERIOD   16   TIME STEP   21
 
 SOLVING FOR HEAD 
                                                   Max.-Head-Change                         Max.-Flux-Residual
  Residual-Control   Outer-Iter.   Inner-Iter.     Column Row Layer    Maximum-Head-Change  Column Row Layer    Maximum-Flux-Residual          L2-NORM 
          0                 1           2             2    2     1       0.6022978539E-02       2    2    1         0.3142903222E+00      0.5551994027E+00
          0                 2           2             2    2     1      -0.5858731040E-03       2    2    1        -0.3142913366E-01      0.5552001970E-01
          0                 3           1             2    2     1       0.3989577130E-04       2    2    1         0.2200039342E-02      0.3886403050E-02

    ------------------------------------------------
       NWT REQUIRED            3 OUTER ITERATIONS 
       AND A TOTAL OF          5 INNER ITERATIONS.
    ------------------------------------------------

 NO OUTPUT CONTROL FOR STRESS PERIOD   16   TIME STEP   22
 
 SOLVING FOR HEAD 
                                                   Max.-Head-Change                         Max.-Flux-Residual
  Residual-Control   Outer-Iter.   Inner-Iter.     Column Row Layer    Maximum-Head-Change  Column Row Layer    Maximum-Flux-Residual          L2-NORM 
          0                 1           2             2    2     1       0.5988699512E-02       2    2    1         0.3124876219E+00      0.5525536697E+00
          0                 2           2             2    2     1      -0.5825386647E-03       2    2    1        -0.3124886200E-01      0.5525544564E-01
          0                 3           1             2    2     1       0.3966870862E-04       2    2    1         0.2187420339E-02      0.3867881053E-02

    ------------------------------------------------
       NWT REQUIRED            3 OUTER ITERATIONS 
       AND A TOTAL OF          5 INNER ITERATIONS.
    ------------------------------------------------

 NO OUTPUT CONTROL FOR STRESS PERIOD   16   TIME STEP   23
 
 SOLVING FOR HEAD 
                                                   Max.-Head-Change                         Max.-Flux-Residual
  Residual-Control   Outer-Iter.   Inner-Iter.     Column Row Layer    Maximum-Head-Change  Column Row Layer    Maximum-Flux-Residual          L2-NORM 
          0                 1           2             2    2     1       0.5954989684E-02       2    2    1         0.3107148653E+00      0.5499968462E+00
          0                 2           2             2    2     1      -0.5792595928E-03       2    2    1        -0.3107158471E-01      0.5499976199E-01
          0                 3           1             2    2     1       0.3944541614E-04       2    2    1         0.2175010921E-02      0.3849983218E-02

    ------------------------------------------------
       NWT REQUIRED            3 OUTER ITERATIONS 
       AND A TOTAL OF          5 INNER ITERATIONS.
    ------------------------------------------------

 NO OUTPUT CONTROL FOR STRESS PERIOD   16   TIME STEP   24
 
 SOLVING FOR HEAD 
                                                   Max.-Head-Change                         Max.-Flux-Residual
  Residual-Control   Outer-Iter.   Inner-Iter.     Column Row Layer    Maximum-Head-Change  Column Row Layer    Maximum-Flux-Residual          L2-NORM 
          0                 1           2             2    2     1       0.5921665734E-02       2    2    1         0.3089624813E+00      0.5475088814E+00
          0                 2           2             2    2     1      -0.5760180576E-03       2    2    1        -0.3089634473E-01      0.5475096439E-01
          0                 3           1             2    2     1       0.3922467974E-04       2    2    1         0.2162744145E-02      0.3832568923E-02

    ------------------------------------------------
       NWT REQUIRED            3 OUTER ITERATIONS 
       AND A TOTAL OF          5 INNER ITERATIONS.
    ------------------------------------------------

 NO OUTPUT CONTROL FOR STRESS PERIOD   16   TIME STEP   25
 
 SOLVING FOR HEAD 
                                                   Max.-Head-Change                         Max.-Flux-Residual
  Residual-Control   Outer-Iter.   Inner-Iter.     Column Row Layer    Maximum-Head-Change  Column Row Layer    Maximum-Flux-Residual          L2-NORM 
          0                 1           2             2    2     1       0.5888808050E-02       2    2    1         0.3072346744E+00      0.5450953756E+00
          0                 2           2             2    2     1      -0.5728218777E-03       2    2    1        -0.3072356251E-01      0.5450961053E-01
          0                 3           1             2    2     1       0.3900703216E-04       2    2    1         0.2150649407E-02      0.3815673969E-02

    ------------------------------------------------
       NWT REQUIRED            3 OUTER ITERATIONS 
       AND A TOTAL OF          5 INNER ITERATIONS.
    ------------------------------------------------

 NO OUTPUT CONTROL FOR STRESS PERIOD   16   TIME STEP   26
 
 SOLVING FOR HEAD 
                                                   Max.-Head-Change                         Max.-Flux-Residual
  Residual-Control   Outer-Iter.   Inner-Iter.     Column Row Layer    Maximum-Head-Change  Column Row Layer    Maximum-Flux-Residual          L2-NORM 
          0                 1           2             2    2     1       0.5856409483E-02       2    2    1         0.3055310429E+00      0.5427555777E+00
          0                 2           2             2    2     1      -0.5696703573E-03       2    2    1        -0.3055319782E-01      0.5427563022E-01
          0                 3           1             2    2     1       0.3879242559E-04       2    2    1         0.2138723890E-02      0.3799294881E-02

    ------------------------------------------------
       NWT REQUIRED            3 OUTER ITERATIONS 
       AND A TOTAL OF          5 INNER ITERATIONS.
    ------------------------------------------------

 NO OUTPUT CONTROL FOR STRESS PERIOD   16   TIME STEP   27
 
 SOLVING FOR HEAD 
                                                   Max.-Head-Change                         Max.-Flux-Residual
  Residual-Control   Outer-Iter.   Inner-Iter.     Column Row Layer    Maximum-Head-Change  Column Row Layer    Maximum-Flux-Residual          L2-NORM 
          0                 1           2             2    2     1       0.5824462948E-02       2    2    1         0.3038512162E+00      0.5404859283E+00
          0                 2           2             2    2     1      -0.5665628082E-03       2    2    1        -0.3038521366E-01      0.5404866310E-01
          0                 3           1             2    2     1       0.3858081342E-04       2    2    1         0.2126965014E-02      0.3783405516E-02

    ------------------------------------------------
       NWT REQUIRED            3 OUTER ITERATIONS 
       AND A TOTAL OF          5 INNER ITERATIONS.
    ------------------------------------------------

 NO OUTPUT CONTROL FOR STRESS PERIOD   16   TIME STEP   28
 
 SOLVING FOR HEAD 
                                                   Max.-Head-Change                         Max.-Flux-Residual
  Residual-Control   Outer-Iter.   Inner-Iter.     Column Row Layer    Maximum-Head-Change  Column Row Layer    Maximum-Flux-Residual          L2-NORM 
          0                 1           2             2    2     1       0.5792873749E-02       2    2    1         0.3021902559E+00      0.5382720752E+00
          0                 2           2             2    2     1      -0.5634900181E-03       2    2    1        -0.3021911617E-01      0.5382727585E-01
          0                 3           1             2    2     1       0.3837156750E-04       2    2    1         0.2115338175E-02      0.3767909789E-02

    ------------------------------------------------
       NWT REQUIRED            3 OUTER ITERATIONS 
       AND A TOTAL OF          5 INNER ITERATIONS.
    ------------------------------------------------

 NO OUTPUT CONTROL FOR STRESS PERIOD   16   TIME STEP   29
 
 SOLVING FOR HEAD 
                                                   Max.-Head-Change                         Max.-Flux-Residual
  Residual-Control   Outer-Iter.   Inner-Iter.     Column Row Layer    Maximum-Head-Change  Column Row Layer    Maximum-Flux-Residual          L2-NORM 
          0                 1           2             2    2     1       0.5057185224E-02       2    2    1         0.2637200861E+00      0.4773408348E+00
          0                 2           2             2    2     1      -0.4919272292E-03       2    2    1        -0.2637207559E-01      0.4773412922E-01
          0                 3           1             2    2     1       0.3349841064E-04       2    2    1         0.1846045450E-02      0.3341389088E-02

    ------------------------------------------------
       NWT REQUIRED            3 OUTER ITERATIONS 
       AND A TOTAL OF          5 INNER ITERATIONS.
    ------------------------------------------------

 NO OUTPUT CONTROL FOR STRESS PERIOD   16   TIME STEP   30



 STREAM LISTING     PERIOD     16   STEP       30

 LAYER ROW COL. STREAM  RCH.  FLOW INTO     FLOW TO   FLOW OUT OF   OVRLND.     DIRECT     STREAM       STREAM     STREAM     STREAM   STREAMBED  STREAMBED
                SEG.NO.  NO.  STRM. RCH.    AQUIFER    STRM. RCH.    RUNOFF     PRECIP       ET          HEAD       DEPTH      WIDTH   CONDCTNC.   GRADIENT

   1    1    1     1     1    6.6341E+01  3.9373E-01   6.5947E+01  0.000E+00  0.000E+00  0.000E+00  1.09465E+03  1.601E+00  1.902E+01  8.558E-02  1.534E+00
   1    2    2     1     2    6.5947E+01  6.0983E-01   6.5338E+01  0.000E+00  0.000E+00  0.000E+00  1.08965E+03  1.595E+00  1.896E+01  1.327E-01  1.532E+00
   1    3    3     1     3    6.5338E+01  5.2015E-01   6.4817E+01  0.000E+00  0.000E+00  0.000E+00  1.08401E+03  1.588E+00  1.889E+01  1.134E-01  1.529E+00
   1    3    4     1     4    6.4817E+01  4.7905E-01   6.4338E+01  0.000E+00  0.000E+00  0.000E+00  1.07899E+03  1.582E+00  1.884E+01  1.045E-01  1.527E+00
   1    4    5     2     1    6.2338E+01  3.9665E-01   6.1942E+01  0.000E+00  0.000E+00  0.000E+00  1.07402E+03  2.085E+00  1.200E+01  7.800E-02  1.695E+00
   1    5    6     2     2    6.1942E+01  3.0469E-01   6.1637E+01  0.000E+00  0.000E+00  0.000E+00  1.06859E+03  2.078E+00  1.200E+01  6.000E-02  1.693E+00
   1    6    6     2     3    6.1637E+01  3.0432E-01   6.1333E+01  0.000E+00  0.000E+00  0.000E+00  1.06386E+03  2.072E+00  1.200E+01  6.000E-02  1.691E+00
   1    7    6     2     4    6.1333E+01  3.0396E-01   6.1029E+01  0.000E+00  0.000E+00  0.000E+00  1.05914E+03  2.066E+00  1.200E+01  6.000E-02  1.689E+00
   1    8    6     2     5    6.1029E+01  3.0359E-01   6.0725E+01  0.000E+00  0.000E+00  0.000E+00  1.05442E+03  2.060E+00  1.200E+01  6.000E-02  1.687E+00
   1    3    5     3     1    2.0000E+00  2.8252E-01   1.7175E+00  0.000E+00  0.000E+00  0.000E+00  1.07555E+03  1.909E+00  9.636E+00  7.227E-02  1.955E+00
   1    3    6     3     2    1.7175E+00  2.4905E-01   1.4684E+00  0.000E+00  0.000E+00  0.000E+00  1.07264E+03  1.727E+00  8.909E+00  6.682E-02  1.864E+00
   1    3    7     3     3    1.4684E+00  1.9718E-01   1.2712E+00  0.000E+00  0.000E+00  0.000E+00  1.06987E+03  1.555E+00  8.218E+00  5.547E-02  1.777E+00
   1    4    8     3     4    1.2712E+00  2.2567E-01   1.0456E+00  0.000E+00  0.000E+00  0.000E+00  1.06682E+03  1.364E+00  7.455E+00  6.709E-02  1.682E+00
   1    5    8     3     5    1.0456E+00  1.5790E-01   8.8768E-01  0.000E+00  0.000E+00  0.000E+00  1.06362E+03  1.164E+00  6.655E+00  4.991E-02  1.582E+00
   1    6    8     3     6    8.8768E-01  5.5980E-02   8.3170E-01  0.000E+00  0.000E+00  0.000E+00  1.06158E+03  1.036E+00  6.145E+00  1.844E-02  1.518E+00
   1    5   10     4     1    1.0000E+01  9.0919E-02   9.9091E+00  0.000E+00  0.000E+00  0.000E+00  1.07836E+03  6.368E-01  1.000E+01  2.500E-02  1.212E+00
   1    5    9     4     2    9.9091E+00  1.8158E-01   9.7275E+00  0.000E+00  0.000E+00  0.000E+00  1.07154E+03  6.315E-01  1.000E+01  5.000E-02  1.211E+00
   1    6    8     4     3    9.7275E+00  1.2689E-01   9.6006E+00  0.000E+00  0.000E+00  0.000E+00  1.06381E+03  6.256E-01  1.000E+01  3.500E-02  1.209E+00
   1    6    8     5     1    1.0432E+01  2.2686E-01   1.0205E+01  0.000E+00  0.000E+00  0.000E+00  1.05868E+03  6.790E-01  1.542E+01  6.166E-02  1.226E+00
   1    7    7     5     2    1.0205E+01  2.7894E-01   9.9265E+00  0.000E+00  0.000E+00  0.000E+00  1.05417E+03  6.732E-01  1.519E+01  7.594E-02  1.224E+00
   1    8    7     5     3    9.9265E+00  1.9221E-01   9.7343E+00  0.000E+00  0.000E+00  0.000E+00  1.04992E+03  6.676E-01  1.497E+01  5.241E-02  1.223E+00
   1    8    6     5     4    9.7343E+00  1.3577E-01   9.5985E+00  0.000E+00  0.000E+00  0.000E+00  1.04691E+03  6.637E-01  1.482E+01  3.706E-02  1.221E+00
   1    9    6     6     1    9.5985E+00  2.2097E-01   9.3776E+00  0.000E+00  0.000E+00  0.000E+00  1.04341E+03  6.828E-01  1.200E+01  6.000E-02  1.228E+00
   1   10    7     6     2    9.3776E+00  2.2039E-01   9.1572E+00  0.000E+00  0.000E+00  0.000E+00  1.03885E+03  6.732E-01  1.200E+01  6.000E-02  1.224E+00
   1   11    7     6     3    9.1572E+00  2.1981E-01   8.9374E+00  0.000E+00  0.000E+00  0.000E+00  1.03430E+03  6.636E-01  1.200E+01  6.000E-02  1.221E+00
   1   12    7     6     4    8.9374E+00  2.1923E-01   8.7181E+00  0.000E+00  0.000E+00  0.000E+00  1.02974E+03  6.539E-01  1.200E+01  6.000E-02  1.218E+00
   1   13    7     6     5    8.7181E+00 -1.1166E-01   8.8298E+00  0.000E+00  0.000E+00  0.000E+00  1.02656E+03  6.515E-01  1.200E+01  2.400E-01 -1.551E-01
   1   14    9     7     1    1.5000E+02  1.3415E+00   1.4866E+02  0.000E+00  0.000E+00  0.000E+00  1.03987E+03  2.288E+00  5.529E+01  5.593E-01  7.995E-01
   1   13    8     7     2    1.4866E+02  1.8461E+00   1.4681E+02  0.000E+00  0.000E+00  0.000E+00  1.03478E+03  2.279E+00  5.526E+01  6.148E-01  1.001E+00
   1   13    7     7     3    1.4681E+02  1.4876E+00   1.4532E+02  0.000E+00  0.000E+00  0.000E+00  1.02969E+03  2.270E+00  5.522E+01  5.584E-01  8.880E-01
   1   13    6     8     1    1.5415E+02  8.3946E-01   1.5332E+02  0.000E+00  0.000E+00  0.000E+00  1.02472E+03  2.843E+00  4.122E+01  4.201E-01  6.661E-01
   1   13    5     8     2    1.5332E+02  1.0973E-01   1.5321E+02  0.000E+00  0.000E+00  0.000E+00  1.01846E+03  2.840E+00  4.117E+01  4.196E-01  8.718E-02
   1   13    4     8     3    1.5321E+02 -2.6477E+00   1.5585E+02  0.000E+00  0.000E+00  0.000E+00  1.01222E+03  2.848E+00  4.130E+01  4.209E+00 -2.097E-01
   1   13    3     8     4    1.5585E+02 -3.7341E+00   1.5959E+02  0.000E+00  0.000E+00  0.000E+00  1.00600E+03  2.870E+00  4.162E+01  4.241E+00 -2.935E-01
   1   13    2     8     5    1.5959E+02 -2.5963E+00   1.6218E+02  0.000E+00  0.000E+00  0.000E+00  9.99767E+02  2.892E+00  4.193E+01  4.273E+00 -2.025E-01
   1   13    1     8     6    1.6218E+02 -1.9801E+00   1.6416E+02  0.000E+00  0.000E+00  0.000E+00  9.94782E+02  2.907E+00  4.215E+01  2.577E+00 -2.561E-01
   1    8    6     9     1    6.0725E+01  0.0000E+00   6.0725E+01  0.000E+00  0.000E+00  0.000E+00  1.08544E+03  6.688E+00  4.000E+00  0.000E+00  3.229E+00
   1    8    5     9     2    6.0725E+01  0.0000E+00   6.0725E+01  0.000E+00  0.000E+00  0.000E+00  1.08494E+03  6.688E+00  4.000E+00  0.000E+00  3.229E+00





UNSATURATED ZONE PACKAGE VOLUMETRIC BUDGET FOR  TIME STEP    30 STRESS PERIOD   16
  ------------------------------------------------------------------------------



     CUMULATIVE VOLUMES      L**3       RATES FOR THIS TIME STEP      L**3/T
     ------------------                 ------------------------

           IN:                                      IN:
           ---                                      ---
        INFILTRATION =    33507097.0911          INFILTRATION =           0.8475

          OUT:                                     OUT:
          ----                                     ----
              UZF ET =    32067939.0787                UZF ET =           0.7500
        UZF RECHARGE =       73224.0000          UZF RECHARGE =       0.0000E+00

            IN - OUT =     1365934.0124              IN - OUT =       9.7500E-02

          STORAGE:                                 STORAGE:
          --------                                 --------
      STORAGE CHANGE =     1365934.1755        STORAGE CHANGE =       9.7500E-02

 PERCENT DISCREPANCY IS DIFFERENCE BETWEEN IN-OUT MINUS CHANGE IN STORAGE
 DIVIDED BY THE AVERAGE OF IN AND OUT TIMES 100

 PERCENT DISCREPANCY =           0.00     PERCENT DISCREPANCY =           0.00






1
  VOLUMETRIC BUDGET FOR ENTIRE MODEL AT END OF TIME STEP   30, STRESS PERIOD  16
  ------------------------------------------------------------------------------

     CUMULATIVE VOLUMES      L**3       RATES FOR THIS TIME STEP      L**3/T
     ------------------                 ------------------------

           IN:                                      IN:
           ---                                      ---
             STORAGE     =    18104500.0000               STORAGE     =           0.2683
       CONSTANT HEAD     =           0.0000         CONSTANT HEAD     =           0.0000
     HEAD DEP BOUNDS     =    11304430.0000       HEAD DEP BOUNDS     =           0.2861
      STREAM LEAKAGE     =   464043712.0000        STREAM LEAKAGE     =          12.5222
        UZF RECHARGE     =       73223.9531          UZF RECHARGE     =           0.0000
               GW ET     =           0.0000                 GW ET     =           0.0000
     SURFACE LEAKAGE     =           0.0000       SURFACE LEAKAGE     =           0.0000

                TOTAL IN =   493525856.0000                  TOTAL IN =          13.0767

          OUT:                                     OUT:
          ----                                     ----
             STORAGE     =    43539308.0000               STORAGE     =           1.7203
       CONSTANT HEAD     =           0.0000         CONSTANT HEAD     =           0.0000
     HEAD DEP BOUNDS     =    11344535.0000       HEAD DEP BOUNDS     =           0.2869
      STREAM LEAKAGE     =   438648992.0000        STREAM LEAKAGE     =          11.0698
        UZF RECHARGE     =           0.0000          UZF RECHARGE     =           0.0000
               GW ET     =           0.0000                 GW ET     =           0.0000
     SURFACE LEAKAGE     =           0.0000       SURFACE LEAKAGE     =           0.0000

               TOTAL OUT =   493532832.0000                 TOTAL OUT =          13.0771

                IN - OUT =       -6976.0000                  IN - OUT =      -4.1199E-04

     PERCENT DISCREPANCY =          -0.00         PERCENT DISCREPANCY =          -0.00






         TIME SUMMARY AT END OF TIME STEP   30 IN STRESS PERIOD   16
                    SECONDS     MINUTES      HOURS       DAYS        YEARS
                    -----------------------------------------------------------
   TIME STEP LENGTH  87667.      1461.1      24.352      1.0147     2.77799E-03
 STRESS PERIOD TIME 2.63000E+06  43833.      730.56      30.440     8.33397E-02
         TOTAL TIME 3.95364E+07 6.58940E+05  10982.      457.60      1.2528    
1
1
                            STRESS PERIOD NO.   17, LENGTH =   2630000.    
                            -----------------------------------------------

                              NUMBER OF TIME STEPS =    30

                               MULTIPLIER FOR DELT =     1.000

                            INITIAL TIME STEP SIZE =   87666.66    

 REUSING NON-PARAMETER GHB CELLS FROM LAST STRESS PERIOD

      2 GHB CELLS

 REUSING STREAM SEGMENT DATA FROM LAST STRESS PERIOD



            AREAL INFILTRATION RATE
 READING ON UNIT   19 WITH FORMAT: (FREE)              

            1           2           3           4           5           6           7           8           9          10
 ........................................................................................................................
   1   1.0000E-10  2.0000E-10   0.000       0.000       0.000       0.000       0.000       0.000       0.000       0.000    
   2   2.0000E-10  1.0000E-10  2.0000E-10   0.000       0.000      8.0000E-10  8.0000E-10  5.0000E-10   0.000       0.000    
   3    0.000      5.0000E-10  1.0000E-10  1.0000E-10  8.0000E-10  8.0000E-10  5.0000E-10  5.0000E-10   0.000       0.000    
   4   8.0000E-10  5.0000E-10  1.0000E-10  1.0000E-10  1.0000E-10  1.0000E-10  1.0000E-10  1.0000E-10  2.0000E-10   0.000    
   5   8.0000E-10  5.0000E-10  1.0000E-10  1.0000E-10  1.0000E-10  1.0000E-10  1.0000E-10  1.0000E-10  1.0000E-10  1.0000E-10
   6   8.0000E-10  5.0000E-10  5.0000E-10  2.0000E-10  2.0000E-10  1.0000E-10  1.0000E-10  1.0000E-10  1.0000E-10  5.0000E-10
   7   8.0000E-10  5.0000E-10  5.0000E-10  2.0000E-10  2.0000E-10  1.0000E-10  1.0000E-10  2.0000E-10  2.0000E-10   0.000    
   8    0.000      5.0000E-10  5.0000E-10  2.0000E-10  2.0000E-10  1.0000E-10  1.0000E-10  2.0000E-10  5.0000E-10   0.000    
   9    0.000      5.0000E-10  5.0000E-10  2.0000E-10  2.0000E-10  1.0000E-10  1.0000E-10  2.0000E-10  5.0000E-10   0.000    
  10    0.000      5.0000E-10  5.0000E-10  2.0000E-10  2.0000E-10  1.0000E-10  1.0000E-10  2.0000E-10  5.0000E-10  8.0000E-10
  11    0.000      1.0000E-10  1.0000E-10  1.0000E-10  1.0000E-10  1.0000E-10  1.0000E-10  2.0000E-10  5.0000E-10   0.000    
  12   1.0000E-10  1.0000E-10  1.0000E-10  1.0000E-10  1.0000E-10  1.0000E-10  1.0000E-10  1.0000E-10  2.0000E-10   0.000    
  13   1.0000E-10  1.0000E-10  2.0000E-10  2.0000E-10  2.0000E-10  2.0000E-10  2.0000E-10  1.0000E-10  1.0000E-10   0.000    
  14    0.000      2.0000E-10  5.0000E-10  5.0000E-10  5.0000E-10  5.0000E-10  5.0000E-10  2.0000E-10  1.0000E-10   0.000    
  15    0.000       0.000      8.0000E-10  8.0000E-10  8.0000E-10  8.0000E-10   0.000       0.000       0.000       0.000    

                  ET RATE =  2.500000E-08

 USING ET EXTINCTION DEPTH FROM PREVIOUS STRESS PERIOD. CURRENT PERIOD IS:      17

 USING EXTINCTION WATER CONTENT FROM PREVIOUS STRESS PERIOD. CURRENT PERIOD IS:      17

 USING AIR ENTRY PRESSURE FROM PREVIOUS STRESS PERIOD. CURRENT PERIOD IS:      17

 USING ROOT PRESSURE HEAD FROM PREVIOUS STRESS PERIOD. CURRENT PERIOD IS:      17

 USING ROOT ACTIVITY FROM PREVIOUS STRESS PERIOD. CURRENT PERIOD IS:      17
 
 SOLVING FOR HEAD 
                                                   Max.-Head-Change                         Max.-Flux-Residual
  Residual-Control   Outer-Iter.   Inner-Iter.     Column Row Layer    Maximum-Head-Change  Column Row Layer    Maximum-Flux-Residual          L2-NORM 
          0                 1           2             2    2     1       0.3992637795E-02       2    2    1         0.2080595697E+00      0.3925476197E+00
          0                 2           2             2    2     1      -0.3883753671E-03       2    2    1        -0.2080599576E-01      0.3925478385E-01
          0                 3           1             2    2     1       0.2644691701E-04       2    2    1         0.1456419960E-02      0.2747834995E-02

    ------------------------------------------------
       NWT REQUIRED            3 OUTER ITERATIONS 
       AND A TOTAL OF          5 INNER ITERATIONS.
    ------------------------------------------------

 NO OUTPUT CONTROL FOR STRESS PERIOD   17   TIME STEP    1
 
 SOLVING FOR HEAD 
                                                   Max.-Head-Change                         Max.-Flux-Residual
  Residual-Control   Outer-Iter.   Inner-Iter.     Column Row Layer    Maximum-Head-Change  Column Row Layer    Maximum-Flux-Residual          L2-NORM 
          0                 1           2             2    2     1       0.3975367848E-02       2    2    1         0.2071522765E+00      0.3916215695E+00
          0                 2           2             2    2     1      -0.3866954643E-03       2    2    1        -0.2071526593E-01      0.3916217481E-01
          0                 3           1             2    2     1       0.2633252193E-04       2    2    1         0.1450068875E-02      0.2741352414E-02

    ------------------------------------------------
       NWT REQUIRED            3 OUTER ITERATIONS 
       AND A TOTAL OF          5 INNER ITERATIONS.
    ------------------------------------------------

 NO OUTPUT CONTROL FOR STRESS PERIOD   17   TIME STEP    2
 
 SOLVING FOR HEAD 
                                                   Max.-Head-Change                         Max.-Flux-Residual
  Residual-Control   Outer-Iter.   Inner-Iter.     Column Row Layer    Maximum-Head-Change  Column Row Layer    Maximum-Flux-Residual          L2-NORM 
          0                 1           2             2    2     1       0.3958323918E-02       2    2    1         0.2062568495E+00      0.3907186785E+00
          0                 2           2             2    2     1      -0.3850375472E-03       2    2    1        -0.2062572272E-01      0.3907188656E-01
          0                 3           1             2    2     1       0.2621962381E-04       2    2    1         0.1443800859E-02      0.2735031216E-02

    ------------------------------------------------
       NWT REQUIRED            3 OUTER ITERATIONS 
       AND A TOTAL OF          5 INNER ITERATIONS.
    ------------------------------------------------

 NO OUTPUT CONTROL FOR STRESS PERIOD   17   TIME STEP    3
 
 SOLVING FOR HEAD 
                                                   Max.-Head-Change                         Max.-Flux-Residual
  Residual-Control   Outer-Iter.   Inner-Iter.     Column Row Layer    Maximum-Head-Change  Column Row Layer    Maximum-Flux-Residual          L2-NORM 
          0                 1           2             2    2     1       0.3941415022E-02       2    2    1         0.2053685697E+00      0.3898366175E+00
          0                 2           2             2    2     1      -0.3833927651E-03       2    2    1        -0.2053689423E-01      0.3898368257E-01
          0                 3           1             2    2     1       0.2610762055E-04       2    2    1         0.1437582872E-02      0.2728858004E-02

    ------------------------------------------------
       NWT REQUIRED            3 OUTER ITERATIONS 
       AND A TOTAL OF          5 INNER ITERATIONS.
    ------------------------------------------------

 NO OUTPUT CONTROL FOR STRESS PERIOD   17   TIME STEP    4
 
 SOLVING FOR HEAD 
                                                   Max.-Head-Change                         Max.-Flux-Residual
  Residual-Control   Outer-Iter.   Inner-Iter.     Column Row Layer    Maximum-Head-Change  Column Row Layer    Maximum-Flux-Residual          L2-NORM 
          0                 1           2             2    2     1       0.3924725776E-02       2    2    1         0.2044918627E+00      0.3889689153E+00
          0                 2           2             2    2     1      -0.3817693489E-03       2    2    1        -0.2044922303E-01      0.3889690812E-01
          0                 3           1             2    2     1       0.2599707212E-04       2    2    1         0.1431445882E-02      0.2722783289E-02

    ------------------------------------------------
       NWT REQUIRED            3 OUTER ITERATIONS 
       AND A TOTAL OF          5 INNER ITERATIONS.
    ------------------------------------------------

 NO OUTPUT CONTROL FOR STRESS PERIOD   17   TIME STEP    5
 
 SOLVING FOR HEAD 
                                                   Max.-Head-Change                         Max.-Flux-Residual
  Residual-Control   Outer-Iter.   Inner-Iter.     Column Row Layer    Maximum-Head-Change  Column Row Layer    Maximum-Flux-Residual          L2-NORM 
          0                 1           2             2    2     1       0.3908340984E-02       2    2    1         0.2036311160E+00      0.3881250947E+00
          0                 2           2             2    2     1      -0.3801755480E-03       2    2    1        -0.2036314786E-01      0.3881252652E-01
          0                 3           1             2    2     1       0.2588854015E-04       2    2    1         0.1425420625E-02      0.2716878321E-02

    ------------------------------------------------
       NWT REQUIRED            3 OUTER ITERATIONS 
       AND A TOTAL OF          5 INNER ITERATIONS.
    ------------------------------------------------

 NO OUTPUT CONTROL FOR STRESS PERIOD   17   TIME STEP    6
 
 SOLVING FOR HEAD 
                                                   Max.-Head-Change                         Max.-Flux-Residual
  Residual-Control   Outer-Iter.   Inner-Iter.     Column Row Layer    Maximum-Head-Change  Column Row Layer    Maximum-Flux-Residual          L2-NORM 
          0                 1           2             2    2     1       0.3892080854E-02       2    2    1         0.2027770114E+00      0.3873003388E+00
          0                 2           2             2    2     1      -0.3785938738E-03       2    2    1        -0.2027773695E-01      0.3873005135E-01
          0                 3           1             2    2     1       0.2578083393E-04       2    2    1         0.1419441860E-02      0.2711101545E-02

    ------------------------------------------------
       NWT REQUIRED            3 OUTER ITERATIONS 
       AND A TOTAL OF          5 INNER ITERATIONS.
    ------------------------------------------------

 NO OUTPUT CONTROL FOR STRESS PERIOD   17   TIME STEP    7
 
 SOLVING FOR HEAD 
                                                   Max.-Head-Change                         Max.-Flux-Residual
  Residual-Control   Outer-Iter.   Inner-Iter.     Column Row Layer    Maximum-Head-Change  Column Row Layer    Maximum-Flux-Residual          L2-NORM 
          0                 1           2             2    2     1       0.3876030251E-02       2    2    1         0.2019339422E+00      0.3864946753E+00
          0                 2           2             2    2     1      -0.3770325804E-03       2    2    1        -0.2019342954E-01      0.3864948483E-01
          0                 3           1             2    2     1       0.2567451580E-04       2    2    1         0.1413540356E-02      0.2705465833E-02

    ------------------------------------------------
       NWT REQUIRED            3 OUTER ITERATIONS 
       AND A TOTAL OF          5 INNER ITERATIONS.
    ------------------------------------------------

 NO OUTPUT CONTROL FOR STRESS PERIOD   17   TIME STEP    8
 
 SOLVING FOR HEAD 
                                                   Max.-Head-Change                         Max.-Flux-Residual
  Residual-Control   Outer-Iter.   Inner-Iter.     Column Row Layer    Maximum-Head-Change  Column Row Layer    Maximum-Flux-Residual          L2-NORM 
          0                 1           2             2    2     1       0.3860186270E-02       2    2    1         0.2011017368E+00      0.3856987981E+00
          0                 2           2             2    2     1      -0.3754913862E-03       2    2    1        -0.2011020855E-01      0.3856989652E-01
          0                 3           1             2    2     1       0.2556956587E-04       2    2    1         0.1407714867E-02      0.2699892740E-02

    ------------------------------------------------
       NWT REQUIRED            3 OUTER ITERATIONS 
       AND A TOTAL OF          5 INNER ITERATIONS.
    ------------------------------------------------

 NO OUTPUT CONTROL FOR STRESS PERIOD   17   TIME STEP    9
 
 SOLVING FOR HEAD 
                                                   Max.-Head-Change                         Max.-Flux-Residual
  Residual-Control   Outer-Iter.   Inner-Iter.     Column Row Layer    Maximum-Head-Change  Column Row Layer    Maximum-Flux-Residual          L2-NORM 
          0                 1           2             2    2     1       0.3844458202E-02       2    2    1         0.2002756721E+00      0.3849223078E+00
          0                 2           2             2    2     1      -0.3739614676E-03       2    2    1        -0.2002760163E-01      0.3849224613E-01
          0                 3           1             2    2     1       0.2546538467E-04       2    2    1         0.1401932411E-02      0.2694454811E-02

    ------------------------------------------------
       NWT REQUIRED            3 OUTER ITERATIONS 
       AND A TOTAL OF          5 INNER ITERATIONS.
    ------------------------------------------------

 NO OUTPUT CONTROL FOR STRESS PERIOD   17   TIME STEP   10
 
 SOLVING FOR HEAD 
                                                   Max.-Head-Change                         Max.-Flux-Residual
  Residual-Control   Outer-Iter.   Inner-Iter.     Column Row Layer    Maximum-Head-Change  Column Row Layer    Maximum-Flux-Residual          L2-NORM 
          0                 1           2             2    2     1       0.3829018563E-02       2    2    1         0.1994647621E+00      0.3841609065E+00
          0                 2           2             2    2     1      -0.3724596046E-03       2    2    1        -0.1994651017E-01      0.3841610775E-01
          0                 3           1             2    2     1       0.2536311341E-04       2    2    1         0.1396256000E-02      0.2689128226E-02

    ------------------------------------------------
       NWT REQUIRED            3 OUTER ITERATIONS 
       AND A TOTAL OF          5 INNER ITERATIONS.
    ------------------------------------------------

 NO OUTPUT CONTROL FOR STRESS PERIOD   17   TIME STEP   11
 
 SOLVING FOR HEAD 
                                                   Max.-Head-Change                         Max.-Flux-Residual
  Residual-Control   Outer-Iter.   Inner-Iter.     Column Row Layer    Maximum-Head-Change  Column Row Layer    Maximum-Flux-Residual          L2-NORM 
          0                 1           2             2    2     1       0.3813776025E-02       2    2    1         0.1986642345E+00      0.3834168388E+00
          0                 2           2             2    2     1      -0.3709769151E-03       2    2    1        -0.1986645699E-01      0.3834169910E-01
          0                 3           1             2    2     1       0.2526214765E-04       2    2    1         0.1390652275E-02      0.2683919001E-02

    ------------------------------------------------
       NWT REQUIRED            3 OUTER ITERATIONS 
       AND A TOTAL OF          5 INNER ITERATIONS.
    ------------------------------------------------

 NO OUTPUT CONTROL FOR STRESS PERIOD   17   TIME STEP   12
 
 SOLVING FOR HEAD 
                                                   Max.-Head-Change                         Max.-Flux-Residual
  Residual-Control   Outer-Iter.   Inner-Iter.     Column Row Layer    Maximum-Head-Change  Column Row Layer    Maximum-Flux-Residual          L2-NORM 
          0                 1           2             2    2     1       0.3798640092E-02       2    2    1         0.1978693537E+00      0.3826865063E+00
          0                 2           2             2    2     1      -0.3695045945E-03       2    2    1        -0.1978696846E-01      0.3826866491E-01
          0                 3           1             2    2     1       0.2516188835E-04       2    2    1         0.1385088077E-02      0.2678805524E-02

    ------------------------------------------------
       NWT REQUIRED            3 OUTER ITERATIONS 
       AND A TOTAL OF          5 INNER ITERATIONS.
    ------------------------------------------------

 NO OUTPUT CONTROL FOR STRESS PERIOD   17   TIME STEP   13
 
 SOLVING FOR HEAD 
                                                   Max.-Head-Change                         Max.-Flux-Residual
  Residual-Control   Outer-Iter.   Inner-Iter.     Column Row Layer    Maximum-Head-Change  Column Row Layer    Maximum-Flux-Residual          L2-NORM 
          0                 1           2             1    1     1       0.3791319096E-02       2    2    1         0.1970845728E+00      0.3819640253E+00
          0                 2           2             1    1     1      -0.3687923587E-03       2    2    1        -0.1970848998E-01      0.3819643085E-01
          0                 3           1             1    1     1       0.2511338856E-04       2    2    1         0.1379594570E-02      0.2673750005E-02

    ------------------------------------------------
       NWT REQUIRED            3 OUTER ITERATIONS 
       AND A TOTAL OF          5 INNER ITERATIONS.
    ------------------------------------------------

 NO OUTPUT CONTROL FOR STRESS PERIOD   17   TIME STEP   14
 
 SOLVING FOR HEAD 
                                                   Max.-Head-Change                         Max.-Flux-Residual
  Residual-Control   Outer-Iter.   Inner-Iter.     Column Row Layer    Maximum-Head-Change  Column Row Layer    Maximum-Flux-Residual          L2-NORM 
          0                 1           2             1    1     1       0.3787632925E-02       1    1    1         0.1966099076E+00      0.3812591714E+00
          0                 2           2             1    1     1      -0.3684337932E-03       1    1    1        -0.1966101674E-01      0.3812593080E-01
          0                 3           1             1    1     1       0.2508897192E-04       1    1    1         0.1376271537E-02      0.2668815862E-02

    ------------------------------------------------
       NWT REQUIRED            3 OUTER ITERATIONS 
       AND A TOTAL OF          5 INNER ITERATIONS.
    ------------------------------------------------

 NO OUTPUT CONTROL FOR STRESS PERIOD   17   TIME STEP   15
 
 SOLVING FOR HEAD 
                                                   Max.-Head-Change                         Max.-Flux-Residual
  Residual-Control   Outer-Iter.   Inner-Iter.     Column Row Layer    Maximum-Head-Change  Column Row Layer    Maximum-Flux-Residual          L2-NORM 
          0                 1           2             1    1     1       0.3783959970E-02       1    1    1         0.1964187858E+00      0.3805663209E+00
          0                 2           2             1    1     1      -0.3680765129E-03       1    1    1        -0.1964190444E-01      0.3805664798E-01
          0                 3           1             1    1     1       0.2506464215E-04       1    1    1         0.1374933656E-02      0.2663963915E-02

    ------------------------------------------------
       NWT REQUIRED            3 OUTER ITERATIONS 
       AND A TOTAL OF          5 INNER ITERATIONS.
    ------------------------------------------------

 NO OUTPUT CONTROL FOR STRESS PERIOD   17   TIME STEP   16
 
 SOLVING FOR HEAD 
                                                   Max.-Head-Change                         Max.-Flux-Residual
  Residual-Control   Outer-Iter.   Inner-Iter.     Column Row Layer    Maximum-Head-Change  Column Row Layer    Maximum-Flux-Residual          L2-NORM 
          0                 1           2             1    1     1       0.3780322701E-02       1    1    1         0.1962295195E+00      0.3798851330E+00
          0                 2           2             1    1     1      -0.3677227040E-03       1    1    1        -0.1962297772E-01      0.3798852918E-01
          0                 3           1             1    1     1       0.2504054904E-04       1    1    1         0.1373608776E-02      0.2659196995E-02

    ------------------------------------------------
       NWT REQUIRED            3 OUTER ITERATIONS 
       AND A TOTAL OF          5 INNER ITERATIONS.
    ------------------------------------------------

 NO OUTPUT CONTROL FOR STRESS PERIOD   17   TIME STEP   17
 
 SOLVING FOR HEAD 
                                                   Max.-Head-Change                         Max.-Flux-Residual
  Residual-Control   Outer-Iter.   Inner-Iter.     Column Row Layer    Maximum-Head-Change  Column Row Layer    Maximum-Flux-Residual          L2-NORM 
          0                 1           2             1    1     1       0.3776675976E-02       1    1    1         0.1960397631E+00      0.3792132368E+00
          0                 2           2             1    1     1      -0.3673679757E-03       1    1    1        -0.1960400196E-01      0.3792133509E-01
          0                 3           1             1    1     1       0.2501639346E-04       1    1    1         0.1372280493E-02      0.2654493341E-02

    ------------------------------------------------
       NWT REQUIRED            3 OUTER ITERATIONS 
       AND A TOTAL OF          5 INNER ITERATIONS.
    ------------------------------------------------

 NO OUTPUT CONTROL FOR STRESS PERIOD   17   TIME STEP   18
 
 SOLVING FOR HEAD 
                                                   Max.-Head-Change                         Max.-Flux-Residual
  Residual-Control   Outer-Iter.   Inner-Iter.     Column Row Layer    Maximum-Head-Change  Column Row Layer    Maximum-Flux-Residual          L2-NORM 
          0                 1           2             1    1     1       0.3773042279E-02       1    1    1         0.1958506866E+00      0.3785584308E+00
          0                 2           2             1    1     1      -0.3670145140E-03       1    1    1        -0.1958509420E-01      0.3785585591E-01
          0                 3           1             1    1     1       0.2499232379E-04       1    1    1         0.1370956936E-02      0.2649908083E-02

    ------------------------------------------------
       NWT REQUIRED            3 OUTER ITERATIONS 
       AND A TOTAL OF          5 INNER ITERATIONS.
    ------------------------------------------------

 NO OUTPUT CONTROL FOR STRESS PERIOD   17   TIME STEP   19
 
 SOLVING FOR HEAD 
                                                   Max.-Head-Change                         Max.-Flux-Residual
  Residual-Control   Outer-Iter.   Inner-Iter.     Column Row Layer    Maximum-Head-Change  Column Row Layer    Maximum-Flux-Residual          L2-NORM 
          0                 1           2             1    1     1       0.3769421545E-02       1    1    1         0.1956622856E+00      0.3779107675E+00
          0                 2           2             1    1     1      -0.3666623135E-03       1    1    1        -0.1956625398E-01      0.3779109161E-01
          0                 3           1             1    1     1       0.2496834026E-04       1    1    1         0.1369638121E-02      0.2645377251E-02

    ------------------------------------------------
       NWT REQUIRED            3 OUTER ITERATIONS 
       AND A TOTAL OF          5 INNER ITERATIONS.
    ------------------------------------------------

 NO OUTPUT CONTROL FOR STRESS PERIOD   17   TIME STEP   20
 
 SOLVING FOR HEAD 
                                                   Max.-Head-Change                         Max.-Flux-Residual
  Residual-Control   Outer-Iter.   Inner-Iter.     Column Row Layer    Maximum-Head-Change  Column Row Layer    Maximum-Flux-Residual          L2-NORM 
          0                 1           2             1    1     1       0.3765813712E-02       1    1    1         0.1954745567E+00      0.3772743118E+00
          0                 2           2             1    1     1      -0.3663113682E-03       1    1    1        -0.1954748098E-01      0.3772743540E-01
          0                 3           1             1    1     1       0.2494444218E-04       1    1    1         0.1368324013E-02      0.2640921990E-02

    ------------------------------------------------
       NWT REQUIRED            3 OUTER ITERATIONS 
       AND A TOTAL OF          5 INNER ITERATIONS.
    ------------------------------------------------

 NO OUTPUT CONTROL FOR STRESS PERIOD   17   TIME STEP   21
 
 SOLVING FOR HEAD 
                                                   Max.-Head-Change                         Max.-Flux-Residual
  Residual-Control   Outer-Iter.   Inner-Iter.     Column Row Layer    Maximum-Head-Change  Column Row Layer    Maximum-Flux-Residual          L2-NORM 
          0                 1           2             1    1     1       0.3762218744E-02       1    1    1         0.1952874967E+00      0.3766548338E+00
          0                 2           2             1    1     1      -0.3659616743E-03       1    1    1        -0.1952877488E-01      0.3766549816E-01
          0                 3           1             1    1     1       0.2492062954E-04       1    1    1         0.1367014590E-02      0.2636584973E-02

    ------------------------------------------------
       NWT REQUIRED            3 OUTER ITERATIONS 
       AND A TOTAL OF          5 INNER ITERATIONS.
    ------------------------------------------------

 NO OUTPUT CONTROL FOR STRESS PERIOD   17   TIME STEP   22
 
 SOLVING FOR HEAD 
                                                   Max.-Head-Change                         Max.-Flux-Residual
  Residual-Control   Outer-Iter.   Inner-Iter.     Column Row Layer    Maximum-Head-Change  Column Row Layer    Maximum-Flux-Residual          L2-NORM 
          0                 1           2             1    1     1       0.3758636554E-02       1    1    1         0.1951011037E+00      0.3760318325E+00
          0                 2           2             1    1     1      -0.3656132237E-03       1    1    1        -0.1951013549E-01      0.3760319901E-01
          0                 3           1             1    1     1       0.2489690162E-04       1    1    1         0.1365709848E-02      0.2632225150E-02

    ------------------------------------------------
       NWT REQUIRED            3 OUTER ITERATIONS 
       AND A TOTAL OF          5 INNER ITERATIONS.
    ------------------------------------------------

 NO OUTPUT CONTROL FOR STRESS PERIOD   17   TIME STEP   23
 
 SOLVING FOR HEAD 
                                                   Max.-Head-Change                         Max.-Flux-Residual
  Residual-Control   Outer-Iter.   Inner-Iter.     Column Row Layer    Maximum-Head-Change  Column Row Layer    Maximum-Flux-Residual          L2-NORM 
          0                 1           2             1    1     1       0.3755067080E-02       1    1    1         0.1949153733E+00      0.3754213438E+00
          0                 2           2             1    1     1      -0.3652660092E-03       1    1    1        -0.1949156231E-01      0.3754214667E-01
          0                 3           1             1    1     1       0.2487325749E-04       1    1    1         0.1364409722E-02      0.2627952204E-02

    ------------------------------------------------
       NWT REQUIRED            3 OUTER ITERATIONS 
       AND A TOTAL OF          5 INNER ITERATIONS.
    ------------------------------------------------

 NO OUTPUT CONTROL FOR STRESS PERIOD   17   TIME STEP   24
 
 SOLVING FOR HEAD 
                                                   Max.-Head-Change                         Max.-Flux-Residual
  Residual-Control   Outer-Iter.   Inner-Iter.     Column Row Layer    Maximum-Head-Change  Column Row Layer    Maximum-Flux-Residual          L2-NORM 
          0                 1           2             1    1     1       0.3751510304E-02       1    1    1         0.1947303022E+00      0.3748287647E+00
          0                 2           2             1    1     1      -0.3649200303E-03       1    1    1        -0.1947305511E-01      0.3748288836E-01
          0                 3           1             1    1     1       0.2484969737E-04       1    1    1         0.1363114207E-02      0.2623801708E-02

    ------------------------------------------------
       NWT REQUIRED            3 OUTER ITERATIONS 
       AND A TOTAL OF          5 INNER ITERATIONS.
    ------------------------------------------------

 NO OUTPUT CONTROL FOR STRESS PERIOD   17   TIME STEP   25
 
 SOLVING FOR HEAD 
                                                   Max.-Head-Change                         Max.-Flux-Residual
  Residual-Control   Outer-Iter.   Inner-Iter.     Column Row Layer    Maximum-Head-Change  Column Row Layer    Maximum-Flux-Residual          L2-NORM 
          0                 1           2             1    1     1       0.3747966124E-02       1    1    1         0.1945458895E+00      0.3742427380E+00
          0                 2           2             1    1     1      -0.3645752767E-03       1    1    1        -0.1945461373E-01      0.3742428884E-01
          0                 3           1             1    1     1       0.2482622128E-04       1    1    1         0.1361823323E-02      0.2619703081E-02

    ------------------------------------------------
       NWT REQUIRED            3 OUTER ITERATIONS 
       AND A TOTAL OF          5 INNER ITERATIONS.
    ------------------------------------------------

 NO OUTPUT CONTROL FOR STRESS PERIOD   17   TIME STEP   26
 
 SOLVING FOR HEAD 
                                                   Max.-Head-Change                         Max.-Flux-Residual
  Residual-Control   Outer-Iter.   Inner-Iter.     Column Row Layer    Maximum-Head-Change  Column Row Layer    Maximum-Flux-Residual          L2-NORM 
          0                 1           2             1    1     1       0.3744434505E-02       1    1    1         0.1943621298E+00      0.3736610897E+00
          0                 2           2             1    1     1      -0.3642317451E-03       1    1    1        -0.1943623766E-01      0.3736611837E-01
          0                 3           1             1    1     1       0.2480282802E-04       1    1    1         0.1360537007E-02      0.2615625657E-02

    ------------------------------------------------
       NWT REQUIRED            3 OUTER ITERATIONS 
       AND A TOTAL OF          5 INNER ITERATIONS.
    ------------------------------------------------

 NO OUTPUT CONTROL FOR STRESS PERIOD   17   TIME STEP   27
 
 SOLVING FOR HEAD 
                                                   Max.-Head-Change                         Max.-Flux-Residual
  Residual-Control   Outer-Iter.   Inner-Iter.     Column Row Layer    Maximum-Head-Change  Column Row Layer    Maximum-Flux-Residual          L2-NORM 
          0                 1           2             1    1     1       0.3740915363E-02       1    1    1         0.1941790215E+00      0.3730873604E+00
          0                 2           2             1    1     1      -0.3638894266E-03       1    1    1        -0.1941792672E-01      0.3730874824E-01
          0                 3           1             1    1     1       0.2477951712E-04       1    1    1         0.1359255223E-02      0.2611614079E-02

    ------------------------------------------------
       NWT REQUIRED            3 OUTER ITERATIONS 
       AND A TOTAL OF          5 INNER ITERATIONS.
    ------------------------------------------------

 NO OUTPUT CONTROL FOR STRESS PERIOD   17   TIME STEP   28
 
 SOLVING FOR HEAD 
                                                   Max.-Head-Change                         Max.-Flux-Residual
  Residual-Control   Outer-Iter.   Inner-Iter.     Column Row Layer    Maximum-Head-Change  Column Row Layer    Maximum-Flux-Residual          L2-NORM 
          0                 1           2             1    1     1       0.3737408664E-02       1    1    1         0.1939965600E+00      0.3725303337E+00
          0                 2           2             1    1     1      -0.3635483189E-03       1    1    1        -0.1939968047E-01      0.3725304538E-01
          0                 3           1             1    1     1       0.2475628930E-04       1    1    1         0.1357977994E-02      0.2607714515E-02

    ------------------------------------------------
       NWT REQUIRED            3 OUTER ITERATIONS 
       AND A TOTAL OF          5 INNER ITERATIONS.
    ------------------------------------------------

 NO OUTPUT CONTROL FOR STRESS PERIOD   17   TIME STEP   29
 
 SOLVING FOR HEAD 
                                                   Max.-Head-Change                         Max.-Flux-Residual
  Residual-Control   Outer-Iter.   Inner-Iter.     Column Row Layer    Maximum-Head-Change  Column Row Layer    Maximum-Flux-Residual          L2-NORM 
          0                 1           2             1    1     1       0.3264372983E-02       1    1    1         0.1694249528E+00      0.3215238054E+00
          0                 2           2             1    1     1      -0.3175347291E-03       1    1    1        -0.1694251206E-01      0.3215238351E-01
          0                 3           1             1    1     1       0.2162293540E-04       1    1    1         0.1185976187E-02      0.2250669094E-02

    ------------------------------------------------
       NWT REQUIRED            3 OUTER ITERATIONS 
       AND A TOTAL OF          5 INNER ITERATIONS.
    ------------------------------------------------

 NO OUTPUT CONTROL FOR STRESS PERIOD   17   TIME STEP   30



 STREAM LISTING     PERIOD     17   STEP       30

 LAYER ROW COL. STREAM  RCH.  FLOW INTO     FLOW TO   FLOW OUT OF   OVRLND.     DIRECT     STREAM       STREAM     STREAM     STREAM   STREAMBED  STREAMBED
                SEG.NO.  NO.  STRM. RCH.    AQUIFER    STRM. RCH.    RUNOFF     PRECIP       ET          HEAD       DEPTH      WIDTH   CONDCTNC.   GRADIENT

   1    1    1     1     1    4.9431E+01  3.3436E-01   4.9097E+01  0.000E+00  0.000E+00  0.000E+00  1.09444E+03  1.395E+00  1.690E+01  7.607E-02  1.465E+00
   1    2    2     1     2    4.9097E+01  5.1808E-01   4.8579E+01  0.000E+00  0.000E+00  0.000E+00  1.08945E+03  1.393E+00  1.685E+01  1.179E-01  1.464E+00
   1    3    3     1     3    4.8579E+01  4.4210E-01   4.8137E+01  0.000E+00  0.000E+00  0.000E+00  1.08381E+03  1.390E+00  1.679E+01  1.007E-01  1.463E+00
   1    3    4     1     4    4.8137E+01  4.0732E-01   4.7729E+01  0.000E+00  0.000E+00  0.000E+00  1.07879E+03  1.387E+00  1.673E+01  9.285E-02  1.462E+00
   1    4    5     2     1    4.5729E+01  3.6899E-01   4.5360E+01  0.000E+00  0.000E+00  0.000E+00  1.07366E+03  1.731E+00  1.200E+01  7.800E-02  1.577E+00
   1    5    6     2     2    4.5360E+01  2.8339E-01   4.5077E+01  0.000E+00  0.000E+00  0.000E+00  1.06823E+03  1.723E+00  1.200E+01  6.000E-02  1.574E+00
   1    6    6     2     3    4.5077E+01  2.8300E-01   4.4794E+01  0.000E+00  0.000E+00  0.000E+00  1.06351E+03  1.717E+00  1.200E+01  6.000E-02  1.572E+00
   1    7    6     2     4    4.4794E+01  2.8261E-01   4.4511E+01  0.000E+00  0.000E+00  0.000E+00  1.05879E+03  1.710E+00  1.200E+01  6.000E-02  1.570E+00
   1    8    6     2     5    4.4511E+01  2.8222E-01   4.4229E+01  0.000E+00  0.000E+00  0.000E+00  1.05406E+03  1.704E+00  1.200E+01  6.000E-02  1.568E+00
   1    3    5     3     1    2.0000E+00  2.8252E-01   1.7175E+00  0.000E+00  0.000E+00  0.000E+00  1.07555E+03  1.909E+00  9.636E+00  7.227E-02  1.955E+00
   1    3    6     3     2    1.7175E+00  2.4905E-01   1.4684E+00  0.000E+00  0.000E+00  0.000E+00  1.07264E+03  1.727E+00  8.909E+00  6.682E-02  1.864E+00
   1    3    7     3     3    1.4684E+00  1.9718E-01   1.2712E+00  0.000E+00  0.000E+00  0.000E+00  1.06987E+03  1.555E+00  8.218E+00  5.547E-02  1.777E+00
   1    4    8     3     4    1.2712E+00  2.2567E-01   1.0456E+00  0.000E+00  0.000E+00  0.000E+00  1.06682E+03  1.364E+00  7.455E+00  6.709E-02  1.682E+00
   1    5    8     3     5    1.0456E+00  1.5790E-01   8.8768E-01  0.000E+00  0.000E+00  0.000E+00  1.06362E+03  1.164E+00  6.655E+00  4.991E-02  1.582E+00
   1    6    8     3     6    8.8768E-01  5.5980E-02   8.3170E-01  0.000E+00  0.000E+00  0.000E+00  1.06158E+03  1.036E+00  6.145E+00  1.844E-02  1.518E+00
   1    5   10     4     1    1.0000E+01  9.0919E-02   9.9091E+00  0.000E+00  0.000E+00  0.000E+00  1.07836E+03  6.368E-01  1.000E+01  2.500E-02  1.212E+00
   1    5    9     4     2    9.9091E+00  1.8158E-01   9.7275E+00  0.000E+00  0.000E+00  0.000E+00  1.07154E+03  6.315E-01  1.000E+01  5.000E-02  1.211E+00
   1    6    8     4     3    9.7275E+00  1.2689E-01   9.6006E+00  0.000E+00  0.000E+00  0.000E+00  1.06381E+03  6.256E-01  1.000E+01  3.500E-02  1.209E+00
   1    6    8     5     1    1.0432E+01  2.2686E-01   1.0205E+01  0.000E+00  0.000E+00  0.000E+00  1.05868E+03  6.790E-01  1.542E+01  6.166E-02  1.226E+00
   1    7    7     5     2    1.0205E+01  2.7894E-01   9.9265E+00  0.000E+00  0.000E+00  0.000E+00  1.05417E+03  6.732E-01  1.519E+01  7.594E-02  1.224E+00
   1    8    7     5     3    9.9265E+00  1.9221E-01   9.7343E+00  0.000E+00  0.000E+00  0.000E+00  1.04992E+03  6.676E-01  1.497E+01  5.241E-02  1.223E+00
   1    8    6     5     4    9.7343E+00  1.3577E-01   9.5985E+00  0.000E+00  0.000E+00  0.000E+00  1.04691E+03  6.637E-01  1.482E+01  3.706E-02  1.221E+00
   1    9    6     6     1    9.5985E+00  2.2097E-01   9.3776E+00  0.000E+00  0.000E+00  0.000E+00  1.04341E+03  6.828E-01  1.200E+01  6.000E-02  1.228E+00
   1   10    7     6     2    9.3776E+00  2.2039E-01   9.1572E+00  0.000E+00  0.000E+00  0.000E+00  1.03885E+03  6.732E-01  1.200E+01  6.000E-02  1.224E+00
   1   11    7     6     3    9.1572E+00  2.1981E-01   8.9374E+00  0.000E+00  0.000E+00  0.000E+00  1.03430E+03  6.636E-01  1.200E+01  6.000E-02  1.221E+00
   1   12    7     6     4    8.9374E+00  2.1923E-01   8.7181E+00  0.000E+00  0.000E+00  0.000E+00  1.02974E+03  6.539E-01  1.200E+01  6.000E-02  1.218E+00
   1   13    7     6     5    8.7181E+00 -1.1151E-01   8.8296E+00  0.000E+00  0.000E+00  0.000E+00  1.02656E+03  6.515E-01  1.200E+01  2.400E-01 -1.549E-01
   1   14    9     7     1    1.5000E+02  1.3418E+00   1.4866E+02  0.000E+00  0.000E+00  0.000E+00  1.03987E+03  2.288E+00  5.529E+01  5.593E-01  7.997E-01
   1   13    8     7     2    1.4866E+02  1.8465E+00   1.4681E+02  0.000E+00  0.000E+00  0.000E+00  1.03478E+03  2.279E+00  5.526E+01  6.148E-01  1.001E+00
   1   13    7     7     3    1.4681E+02  1.4880E+00   1.4532E+02  0.000E+00  0.000E+00  0.000E+00  1.02969E+03  2.270E+00  5.522E+01  5.584E-01  8.882E-01
   1   13    6     8     1    1.5415E+02  8.3983E-01   1.5331E+02  0.000E+00  0.000E+00  0.000E+00  1.02472E+03  2.843E+00  4.122E+01  4.201E-01  6.664E-01
   1   13    5     8     2    1.5331E+02  1.1005E-01   1.5320E+02  0.000E+00  0.000E+00  0.000E+00  1.01846E+03  2.840E+00  4.117E+01  4.196E-01  8.743E-02
   1   13    4     8     3    1.5320E+02 -2.6467E+00   1.5585E+02  0.000E+00  0.000E+00  0.000E+00  1.01222E+03  2.848E+00  4.130E+01  4.209E+00 -2.096E-01
   1   13    3     8     4    1.5585E+02 -3.7334E+00   1.5958E+02  0.000E+00  0.000E+00  0.000E+00  1.00600E+03  2.870E+00  4.162E+01  4.241E+00 -2.934E-01
   1   13    2     8     5    1.5958E+02 -2.5960E+00   1.6218E+02  0.000E+00  0.000E+00  0.000E+00  9.99767E+02  2.892E+00  4.193E+01  4.273E+00 -2.025E-01
   1   13    1     8     6    1.6218E+02 -1.9800E+00   1.6416E+02  0.000E+00  0.000E+00  0.000E+00  9.94782E+02  2.907E+00  4.215E+01  2.577E+00 -2.561E-01
   1    8    6     9     1    4.4229E+01  0.0000E+00   4.4229E+01  0.000E+00  0.000E+00  0.000E+00  1.08428E+03  5.530E+00  4.000E+00  0.000E+00  2.843E+00
   1    8    5     9     2    4.4229E+01  0.0000E+00   4.4229E+01  0.000E+00  0.000E+00  0.000E+00  1.08378E+03  5.530E+00  4.000E+00  0.000E+00  2.843E+00





UNSATURATED ZONE PACKAGE VOLUMETRIC BUDGET FOR  TIME STEP    30 STRESS PERIOD   17
  ------------------------------------------------------------------------------



     CUMULATIVE VOLUMES      L**3       RATES FOR THIS TIME STEP      L**3/T
     ------------------                 ------------------------

           IN:                                      IN:
           ---                                      ---
        INFILTRATION =    35736021.9639          INFILTRATION =           0.8475

          OUT:                                     OUT:
          ----                                     ----
              UZF ET =    34991104.1932                UZF ET =           0.8475
        UZF RECHARGE =       73224.0000          UZF RECHARGE =       0.0000E+00

            IN - OUT =      671693.7707              IN - OUT =       0.0000E+00

          STORAGE:                                 STORAGE:
          --------                                 --------
      STORAGE CHANGE =      671693.9465        STORAGE CHANGE =      -3.3198E-16

 PERCENT DISCREPANCY IS DIFFERENCE BETWEEN IN-OUT MINUS CHANGE IN STORAGE
 DIVIDED BY THE AVERAGE OF IN AND OUT TIMES 100

 PERCENT DISCREPANCY =          -0.00     PERCENT DISCREPANCY =           0.00






1
  VOLUMETRIC BUDGET FOR ENTIRE MODEL AT END OF TIME STEP   30, STRESS PERIOD  17
  ------------------------------------------------------------------------------

     CUMULATIVE VOLUMES      L**3       RATES FOR THIS TIME STEP      L**3/T
     ------------------                 ------------------------

           IN:                                      IN:
           ---                                      ---
             STORAGE     =    18786984.0000               STORAGE     =           0.2515
       CONSTANT HEAD     =           0.0000         CONSTANT HEAD     =           0.0000
     HEAD DEP BOUNDS     =    12057014.0000       HEAD DEP BOUNDS     =           0.2862
      STREAM LEAKAGE     =   496321824.0000        STREAM LEAKAGE     =          12.1100
        UZF RECHARGE     =       73223.9531          UZF RECHARGE     =           0.0000
               GW ET     =           0.0000                 GW ET     =           0.0000
     SURFACE LEAKAGE     =           0.0000       SURFACE LEAKAGE     =           0.0000

                TOTAL IN =   527239040.0000                  TOTAL IN =          12.6477

          OUT:                                     OUT:
          ----                                     ----
             STORAGE     =    47388204.0000               STORAGE     =           1.2935
       CONSTANT HEAD     =           0.0000         CONSTANT HEAD     =           0.0000
     HEAD DEP BOUNDS     =    12099125.0000       HEAD DEP BOUNDS     =           0.2869
      STREAM LEAKAGE     =   467759616.0000        STREAM LEAKAGE     =          11.0676
        UZF RECHARGE     =           0.0000          UZF RECHARGE     =           0.0000
               GW ET     =           0.0000                 GW ET     =           0.0000
     SURFACE LEAKAGE     =           0.0000       SURFACE LEAKAGE     =           0.0000

               TOTAL OUT =   527246944.0000                 TOTAL OUT =          12.6480

                IN - OUT =       -7904.0000                  IN - OUT =      -2.9373E-04

     PERCENT DISCREPANCY =          -0.00         PERCENT DISCREPANCY =          -0.00






         TIME SUMMARY AT END OF TIME STEP   30 IN STRESS PERIOD   17
                    SECONDS     MINUTES      HOURS       DAYS        YEARS
                    -----------------------------------------------------------
   TIME STEP LENGTH  87667.      1461.1      24.352      1.0147     2.77799E-03
 STRESS PERIOD TIME 2.63000E+06  43833.      730.56      30.440     8.33397E-02
         TOTAL TIME 4.21664E+07 7.02774E+05  11713.      488.04      1.3362    
1
1
                            STRESS PERIOD NO.   18, LENGTH =   2630000.    
                            -----------------------------------------------

                              NUMBER OF TIME STEPS =    30

                               MULTIPLIER FOR DELT =     1.000

                            INITIAL TIME STEP SIZE =   87666.66    

 REUSING NON-PARAMETER GHB CELLS FROM LAST STRESS PERIOD

      2 GHB CELLS

 REUSING STREAM SEGMENT DATA FROM LAST STRESS PERIOD



            AREAL INFILTRATION RATE
 READING ON UNIT   19 WITH FORMAT: (FREE)              

            1           2           3           4           5           6           7           8           9          10
 ........................................................................................................................
   1   1.0000E-10  2.0000E-10   0.000       0.000       0.000       0.000       0.000       0.000       0.000       0.000    
   2   2.0000E-10  1.0000E-10  2.0000E-10   0.000       0.000      8.0000E-10  8.0000E-10  5.0000E-10   0.000       0.000    
   3    0.000      5.0000E-10  1.0000E-10  1.0000E-10  8.0000E-10  8.0000E-10  5.0000E-10  5.0000E-10   0.000       0.000    
   4   8.0000E-10  5.0000E-10  1.0000E-10  1.0000E-10  1.0000E-10  1.0000E-10  1.0000E-10  1.0000E-10  2.0000E-10   0.000    
   5   8.0000E-10  5.0000E-10  1.0000E-10  1.0000E-10  1.0000E-10  1.0000E-10  1.0000E-10  1.0000E-10  1.0000E-10  1.0000E-10
   6   8.0000E-10  5.0000E-10  5.0000E-10  2.0000E-10  2.0000E-10  1.0000E-10  1.0000E-10  1.0000E-10  1.0000E-10  5.0000E-10
   7   8.0000E-10  5.0000E-10  5.0000E-10  2.0000E-10  2.0000E-10  1.0000E-10  1.0000E-10  2.0000E-10  2.0000E-10   0.000    
   8    0.000      5.0000E-10  5.0000E-10  2.0000E-10  2.0000E-10  1.0000E-10  1.0000E-10  2.0000E-10  5.0000E-10   0.000    
   9    0.000      5.0000E-10  5.0000E-10  2.0000E-10  2.0000E-10  1.0000E-10  1.0000E-10  2.0000E-10  5.0000E-10   0.000    
  10    0.000      5.0000E-10  5.0000E-10  2.0000E-10  2.0000E-10  1.0000E-10  1.0000E-10  2.0000E-10  5.0000E-10  8.0000E-10
  11    0.000      1.0000E-10  1.0000E-10  1.0000E-10  1.0000E-10  1.0000E-10  1.0000E-10  2.0000E-10  5.0000E-10   0.000    
  12   1.0000E-10  1.0000E-10  1.0000E-10  1.0000E-10  1.0000E-10  1.0000E-10  1.0000E-10  1.0000E-10  2.0000E-10   0.000    
  13   1.0000E-10  1.0000E-10  2.0000E-10  2.0000E-10  2.0000E-10  2.0000E-10  2.0000E-10  1.0000E-10  1.0000E-10   0.000    
  14    0.000      2.0000E-10  5.0000E-10  5.0000E-10  5.0000E-10  5.0000E-10  5.0000E-10  2.0000E-10  1.0000E-10   0.000    
  15    0.000       0.000      8.0000E-10  8.0000E-10  8.0000E-10  8.0000E-10   0.000       0.000       0.000       0.000    

                  ET RATE =  5.000000E-08

 USING ET EXTINCTION DEPTH FROM PREVIOUS STRESS PERIOD. CURRENT PERIOD IS:      18

 USING EXTINCTION WATER CONTENT FROM PREVIOUS STRESS PERIOD. CURRENT PERIOD IS:      18

 USING AIR ENTRY PRESSURE FROM PREVIOUS STRESS PERIOD. CURRENT PERIOD IS:      18

 USING ROOT PRESSURE HEAD FROM PREVIOUS STRESS PERIOD. CURRENT PERIOD IS:      18

 USING ROOT ACTIVITY FROM PREVIOUS STRESS PERIOD. CURRENT PERIOD IS:      18
 
 SOLVING FOR HEAD 
                                                   Max.-Head-Change                         Max.-Flux-Residual
  Residual-Control   Outer-Iter.   Inner-Iter.     Column Row Layer    Maximum-Head-Change  Column Row Layer    Maximum-Flux-Residual          L2-NORM 
          0                 1           2             1    1     1       0.3131971757E-02       1    1    1         0.1625473055E+00      0.3078901913E+00
          0                 2           2             1    1     1      -0.3046556710E-03       1    1    1        -0.1625474541E-01      0.3078902293E-01
          0                 3           1             1    1     1       0.2074591988E-04       1    1    1         0.1137832540E-02      0.2155231879E-02

    ------------------------------------------------
       NWT REQUIRED            3 OUTER ITERATIONS 
       AND A TOTAL OF          5 INNER ITERATIONS.
    ------------------------------------------------

 NO OUTPUT CONTROL FOR STRESS PERIOD   18   TIME STEP    1
 
 SOLVING FOR HEAD 
                                                   Max.-Head-Change                         Max.-Flux-Residual
  Residual-Control   Outer-Iter.   Inner-Iter.     Column Row Layer    Maximum-Head-Change  Column Row Layer    Maximum-Flux-Residual          L2-NORM 
          0                 1           2             1    1     1       0.3129475152E-02       1    1    1         0.1624174353E+00      0.3075336200E+00
          0                 2           2             1    1     1      -0.3044128186E-03       1    1    1        -0.1624175834E-01      0.3075336038E-01
          0                 3           1             1    1     1       0.2072938233E-04       1    1    1         0.1136923439E-02      0.2152736747E-02

    ------------------------------------------------
       NWT REQUIRED            3 OUTER ITERATIONS 
       AND A TOTAL OF          5 INNER ITERATIONS.
    ------------------------------------------------

 NO OUTPUT CONTROL FOR STRESS PERIOD   18   TIME STEP    2
 
 SOLVING FOR HEAD 
                                                   Max.-Head-Change                         Max.-Flux-Residual
  Residual-Control   Outer-Iter.   Inner-Iter.     Column Row Layer    Maximum-Head-Change  Column Row Layer    Maximum-Flux-Residual          L2-NORM 
          0                 1           2             1    1     1       0.3127009327E-02       1    1    1         0.1622891626E+00      0.3071969243E+00
          0                 2           2             1    1     1      -0.3041729599E-03       1    1    1        -0.1622893101E-01      0.3071969044E-01
          0                 3           1             1    1     1       0.2071304856E-04       1    1    1         0.1136025512E-02      0.2150380058E-02

    ------------------------------------------------
       NWT REQUIRED            3 OUTER ITERATIONS 
       AND A TOTAL OF          5 INNER ITERATIONS.
    ------------------------------------------------

 NO OUTPUT CONTROL FOR STRESS PERIOD   18   TIME STEP    3
 
 SOLVING FOR HEAD 
                                                   Max.-Head-Change                         Max.-Flux-Residual
  Residual-Control   Outer-Iter.   Inner-Iter.     Column Row Layer    Maximum-Head-Change  Column Row Layer    Maximum-Flux-Residual          L2-NORM 
          0                 1           2             1    1     1       0.3124529059E-02       1    1    1         0.1621601417E+00      0.3068614946E+00
          0                 2           2             1    1     1      -0.3039316969E-03       1    1    1        -0.1621602886E-01      0.3068615038E-01
          0                 3           1             1    1     1       0.2069661989E-04       1    1    1         0.1135122372E-02      0.2148031550E-02

    ------------------------------------------------
       NWT REQUIRED            3 OUTER ITERATIONS 
       AND A TOTAL OF          5 INNER ITERATIONS.
    ------------------------------------------------

 NO OUTPUT CONTROL FOR STRESS PERIOD   18   TIME STEP    4
 
 SOLVING FOR HEAD 
                                                   Max.-Head-Change                         Max.-Flux-Residual
  Residual-Control   Outer-Iter.   Inner-Iter.     Column Row Layer    Maximum-Head-Change  Column Row Layer    Maximum-Flux-Residual          L2-NORM 
          0                 1           2             1    1     1       0.3122056896E-02       1    1    1         0.1620315440E+00      0.3065484070E+00
          0                 2           2             1    1     1      -0.3036912217E-03       1    1    1        -0.1620316902E-01      0.3065484154E-01
          0                 3           1             1    1     1       0.2068024423E-04       1    1    1         0.1134222183E-02      0.2145840730E-02

    ------------------------------------------------
       NWT REQUIRED            3 OUTER ITERATIONS 
       AND A TOTAL OF          5 INNER ITERATIONS.
    ------------------------------------------------

 NO OUTPUT CONTROL FOR STRESS PERIOD   18   TIME STEP    5
 
 SOLVING FOR HEAD 
                                                   Max.-Head-Change                         Max.-Flux-Residual
  Residual-Control   Outer-Iter.   Inner-Iter.     Column Row Layer    Maximum-Head-Change  Column Row Layer    Maximum-Flux-Residual          L2-NORM 
          0                 1           2             1    1     1       0.3119592845E-02       1    1    1         0.1619033665E+00      0.3062346186E+00
          0                 2           2             1    1     1      -0.3034515362E-03       1    1    1        -0.1619035124E-01      0.3062345974E-01
          0                 3           1             1    1     1       0.2066392253E-04       1    1    1         0.1133324936E-02      0.2143642574E-02

    ------------------------------------------------
       NWT REQUIRED            3 OUTER ITERATIONS 
       AND A TOTAL OF          5 INNER ITERATIONS.
    ------------------------------------------------

 NO OUTPUT CONTROL FOR STRESS PERIOD   18   TIME STEP    6
 
 SOLVING FOR HEAD 
                                                   Max.-Head-Change                         Max.-Flux-Residual
  Residual-Control   Outer-Iter.   Inner-Iter.     Column Row Layer    Maximum-Head-Change  Column Row Layer    Maximum-Flux-Residual          L2-NORM 
          0                 1           2             1    1     1       0.3117159429E-02       1    1    1         0.1617767821E+00      0.3059356781E+00
          0                 2           2             1    1     1      -0.3032148300E-03       1    1    1        -0.1617769272E-01      0.3059357214E-01
          0                 3           1             1    1     1       0.2064780366E-04       1    1    1         0.1132438839E-02      0.2141551233E-02

    ------------------------------------------------
       NWT REQUIRED            3 OUTER ITERATIONS 
       AND A TOTAL OF          5 INNER ITERATIONS.
    ------------------------------------------------

 NO OUTPUT CONTROL FOR STRESS PERIOD   18   TIME STEP    7
 
 SOLVING FOR HEAD 
                                                   Max.-Head-Change                         Max.-Flux-Residual
  Residual-Control   Outer-Iter.   Inner-Iter.     Column Row Layer    Maximum-Head-Change  Column Row Layer    Maximum-Flux-Residual          L2-NORM 
          0                 1           2             1    1     1       0.3114711430E-02       1    1    1         0.1616494412E+00      0.3056397216E+00
          0                 2           2             1    1     1      -0.3029767059E-03       1    1    1        -0.1616495859E-01      0.3056397319E-01
          0                 3           1             1    1     1       0.2063158822E-04       1    1    1         0.1131547444E-02      0.2139478539E-02

    ------------------------------------------------
       NWT REQUIRED            3 OUTER ITERATIONS 
       AND A TOTAL OF          5 INNER ITERATIONS.
    ------------------------------------------------

 NO OUTPUT CONTROL FOR STRESS PERIOD   18   TIME STEP    8
 
 SOLVING FOR HEAD 
                                                   Max.-Head-Change                         Max.-Flux-Residual
  Residual-Control   Outer-Iter.   Inner-Iter.     Column Row Layer    Maximum-Head-Change  Column Row Layer    Maximum-Flux-Residual          L2-NORM 
          0                 1           2             1    1     1       0.3112271418E-02       1    1    1         0.1615225165E+00      0.3053543391E+00
          0                 2           2             1    1     1      -0.3027393585E-03       1    1    1        -0.1615226607E-01      0.3053543003E-01
          0                 3           1             1    1     1       0.2061542581E-04       1    1    1         0.1130658971E-02      0.2137478138E-02

    ------------------------------------------------
       NWT REQUIRED            3 OUTER ITERATIONS 
       AND A TOTAL OF          5 INNER ITERATIONS.
    ------------------------------------------------

 NO OUTPUT CONTROL FOR STRESS PERIOD   18   TIME STEP    9
 
 SOLVING FOR HEAD 
                                                   Max.-Head-Change                         Max.-Flux-Residual
  Residual-Control   Outer-Iter.   Inner-Iter.     Column Row Layer    Maximum-Head-Change  Column Row Layer    Maximum-Flux-Residual          L2-NORM 
          0                 1           2             1    1     1       0.3109839370E-02       1    1    1         0.1613960061E+00      0.3050731908E+00
          0                 2           2             1    1     1      -0.3025027856E-03       1    1    1        -0.1613961497E-01      0.3050731785E-01
          0                 3           1             1    1     1       0.2059931640E-04       1    1    1         0.1129773399E-02      0.2135513786E-02

    ------------------------------------------------
       NWT REQUIRED            3 OUTER ITERATIONS 
       AND A TOTAL OF          5 INNER ITERATIONS.
    ------------------------------------------------

 NO OUTPUT CONTROL FOR STRESS PERIOD   18   TIME STEP   10
 
 SOLVING FOR HEAD 
                                                   Max.-Head-Change                         Max.-Flux-Residual
  Residual-Control   Outer-Iter.   Inner-Iter.     Column Row Layer    Maximum-Head-Change  Column Row Layer    Maximum-Flux-Residual          L2-NORM 
          0                 1           2             1    1     1       0.3107415268E-02       1    1    1         0.1612699085E+00      0.3047933294E+00
          0                 2           2             1    1     1      -0.3022669854E-03       1    1    1        -0.1612700515E-01      0.3047933160E-01
          0                 3           1             1    1     1       0.2058325883E-04       1    1    1         0.1128890706E-02      0.2133552702E-02

    ------------------------------------------------
       NWT REQUIRED            3 OUTER ITERATIONS 
       AND A TOTAL OF          5 INNER ITERATIONS.
    ------------------------------------------------

 NO OUTPUT CONTROL FOR STRESS PERIOD   18   TIME STEP   11
 
 SOLVING FOR HEAD 
                                                   Max.-Head-Change                         Max.-Flux-Residual
  Residual-Control   Outer-Iter.   Inner-Iter.     Column Row Layer    Maximum-Head-Change  Column Row Layer    Maximum-Flux-Residual          L2-NORM 
          0                 1           2             1    1     1       0.3105021647E-02       1    1    1         0.1611453959E+00      0.3045263419E+00
          0                 2           2             1    1     1      -0.3020341510E-03       1    1    1        -0.1611455384E-01      0.3045263528E-01
          0                 3           1             1    1     1       0.2056740409E-04       1    1    1         0.1128019135E-02      0.2131684817E-02

    ------------------------------------------------
       NWT REQUIRED            3 OUTER ITERATIONS 
       AND A TOTAL OF          5 INNER ITERATIONS.
    ------------------------------------------------

 NO OUTPUT CONTROL FOR STRESS PERIOD   18   TIME STEP   12
 
 SOLVING FOR HEAD 
                                                   Max.-Head-Change                         Max.-Flux-Residual
  Residual-Control   Outer-Iter.   Inner-Iter.     Column Row Layer    Maximum-Head-Change  Column Row Layer    Maximum-Flux-Residual          L2-NORM 
          0                 1           2             1    1     1       0.3102613260E-02       1    1    1         0.1610201178E+00      0.3042561533E+00
          0                 2           2             1    1     1      -0.3017998799E-03       1    1    1        -0.1610202599E-01      0.3042561298E-01
          0                 3           1             1    1     1       0.2055145113E-04       1    1    1         0.1127142173E-02      0.2129792112E-02

    ------------------------------------------------
       NWT REQUIRED            3 OUTER ITERATIONS 
       AND A TOTAL OF          5 INNER ITERATIONS.
    ------------------------------------------------

 NO OUTPUT CONTROL FOR STRESS PERIOD   18   TIME STEP   13
 
 SOLVING FOR HEAD 
                                                   Max.-Head-Change                         Max.-Flux-Residual
  Residual-Control   Outer-Iter.   Inner-Iter.     Column Row Layer    Maximum-Head-Change  Column Row Layer    Maximum-Flux-Residual          L2-NORM 
          0                 1           2             1    1     1       0.3100212707E-02       1    1    1         0.1608952471E+00      0.3039910238E+00
          0                 2           2             1    1     1      -0.3015663706E-03       1    1    1        -0.1608953886E-01      0.3039909986E-01
          0                 3           1             1    1     1       0.2053554976E-04       1    1    1         0.1126268072E-02      0.2127936906E-02

    ------------------------------------------------
       NWT REQUIRED            3 OUTER ITERATIONS 
       AND A TOTAL OF          5 INNER ITERATIONS.
    ------------------------------------------------

 NO OUTPUT CONTROL FOR STRESS PERIOD   18   TIME STEP   14
 
 SOLVING FOR HEAD 
                                                   Max.-Head-Change                         Max.-Flux-Residual
  Residual-Control   Outer-Iter.   Inner-Iter.     Column Row Layer    Maximum-Head-Change  Column Row Layer    Maximum-Flux-Residual          L2-NORM 
          0                 1           2             1    1     1       0.3097819971E-02       1    1    1         0.1607707825E+00      0.3037307066E+00
          0                 2           2             1    1     1      -0.3013336217E-03       1    1    1        -0.1607709234E-01      0.3037307108E-01
          0                 3           1             1    1     1       0.2051970046E-04       1    1    1         0.1125396820E-02      0.2126115206E-02

    ------------------------------------------------
       NWT REQUIRED            3 OUTER ITERATIONS 
       AND A TOTAL OF          5 INNER ITERATIONS.
    ------------------------------------------------

 NO OUTPUT CONTROL FOR STRESS PERIOD   18   TIME STEP   15
 
 SOLVING FOR HEAD 
                                                   Max.-Head-Change                         Max.-Flux-Residual
  Residual-Control   Outer-Iter.   Inner-Iter.     Column Row Layer    Maximum-Head-Change  Column Row Layer    Maximum-Flux-Residual          L2-NORM 
          0                 1           2             1    1     1       0.3095435003E-02       1    1    1         0.1606467232E+00      0.3034798971E+00
          0                 2           2             1    1     1      -0.3011016288E-03       1    1    1        -0.1606468637E-01      0.3034798678E-01
          0                 3           1             1    1     1       0.2050390252E-04       1    1    1         0.1124528398E-02      0.2124358584E-02

    ------------------------------------------------
       NWT REQUIRED            3 OUTER ITERATIONS 
       AND A TOTAL OF          5 INNER ITERATIONS.
    ------------------------------------------------

 NO OUTPUT CONTROL FOR STRESS PERIOD   18   TIME STEP   16
 
 SOLVING FOR HEAD 
                                                   Max.-Head-Change                         Max.-Flux-Residual
  Residual-Control   Outer-Iter.   Inner-Iter.     Column Row Layer    Maximum-Head-Change  Column Row Layer    Maximum-Flux-Residual          L2-NORM 
          0                 1           2             1    1     1       0.3093057790E-02       1    1    1         0.1605230667E+00      0.3032248258E+00
          0                 2           2             1    1     1      -0.3008703901E-03       1    1    1        -0.1605232067E-01      0.3032248355E-01
          0                 3           1             1    1     1       0.2048815618E-04       1    1    1         0.1123662801E-02      0.2122575009E-02

    ------------------------------------------------
       NWT REQUIRED            3 OUTER ITERATIONS 
       AND A TOTAL OF          5 INNER ITERATIONS.
    ------------------------------------------------

 NO OUTPUT CONTROL FOR STRESS PERIOD   18   TIME STEP   17
 
 SOLVING FOR HEAD 
                                                   Max.-Head-Change                         Max.-Flux-Residual
  Residual-Control   Outer-Iter.   Inner-Iter.     Column Row Layer    Maximum-Head-Change  Column Row Layer    Maximum-Flux-Residual          L2-NORM 
          0                 1           2             1    1     1       0.3090688298E-02       1    1    1         0.1603998123E+00      0.3029717767E+00
          0                 2           2             1    1     1      -0.3006399022E-03       1    1    1        -0.1603999516E-01      0.3029717122E-01
          0                 3           1             1    1     1       0.2047246095E-04       1    1    1         0.1122800023E-02      0.2120802961E-02

    ------------------------------------------------
       NWT REQUIRED            3 OUTER ITERATIONS 
       AND A TOTAL OF          5 INNER ITERATIONS.
    ------------------------------------------------

 NO OUTPUT CONTROL FOR STRESS PERIOD   18   TIME STEP   18
 
 SOLVING FOR HEAD 
                                                   Max.-Head-Change                         Max.-Flux-Residual
  Residual-Control   Outer-Iter.   Inner-Iter.     Column Row Layer    Maximum-Head-Change  Column Row Layer    Maximum-Flux-Residual          L2-NORM 
          0                 1           2             1    1     1       0.3088326481E-02       1    1    1         0.1602769582E+00      0.3027229330E+00
          0                 2           2             1    1     1      -0.3004101611E-03       1    1    1        -0.1602770972E-01      0.3027229496E-01
          0                 3           1             1    1     1       0.2045681590E-04       1    1    1         0.1121940028E-02      0.2119060781E-02

    ------------------------------------------------
       NWT REQUIRED            3 OUTER ITERATIONS 
       AND A TOTAL OF          5 INNER ITERATIONS.
    ------------------------------------------------

 NO OUTPUT CONTROL FOR STRESS PERIOD   18   TIME STEP   19
 
 SOLVING FOR HEAD 
                                                   Max.-Head-Change                         Max.-Flux-Residual
  Residual-Control   Outer-Iter.   Inner-Iter.     Column Row Layer    Maximum-Head-Change  Column Row Layer    Maximum-Flux-Residual          L2-NORM 
          0                 1           2             1    1     1       0.3085972322E-02       1    1    1         0.1601545020E+00      0.3024839604E+00
          0                 2           2             1    1     1      -0.3001811646E-03       1    1    1        -0.1601546404E-01      0.3024839648E-01
          0                 3           1             1    1     1       0.2044122245E-04       1    1    1         0.1121082839E-02      0.2117386684E-02

    ------------------------------------------------
       NWT REQUIRED            3 OUTER ITERATIONS 
       AND A TOTAL OF          5 INNER ITERATIONS.
    ------------------------------------------------

 NO OUTPUT CONTROL FOR STRESS PERIOD   18   TIME STEP   20
 
 SOLVING FOR HEAD 
                                                   Max.-Head-Change                         Max.-Flux-Residual
  Residual-Control   Outer-Iter.   Inner-Iter.     Column Row Layer    Maximum-Head-Change  Column Row Layer    Maximum-Flux-Residual          L2-NORM 
          0                 1           2             1    1     1       0.3083625792E-02       1    1    1         0.1600324430E+00      0.3022359414E+00
          0                 2           2             1    1     1      -0.2999529105E-03       1    1    1        -0.1600325809E-01      0.3022359025E-01
          0                 3           1             1    1     1       0.2042567917E-04       1    1    1         0.1120228420E-02      0.2115651039E-02

    ------------------------------------------------
       NWT REQUIRED            3 OUTER ITERATIONS 
       AND A TOTAL OF          5 INNER ITERATIONS.
    ------------------------------------------------

 NO OUTPUT CONTROL FOR STRESS PERIOD   18   TIME STEP   21
 
 SOLVING FOR HEAD 
                                                   Max.-Head-Change                         Max.-Flux-Residual
  Residual-Control   Outer-Iter.   Inner-Iter.     Column Row Layer    Maximum-Head-Change  Column Row Layer    Maximum-Flux-Residual          L2-NORM 
          0                 1           2             1    1     1       0.3081286841E-02       1    1    1         0.1599107794E+00      0.3019921066E+00
          0                 2           2             1    1     1      -0.2997253939E-03       1    1    1        -0.1599109169E-01      0.3019921314E-01
          0                 3           1             1    1     1       0.2041018630E-04       1    1    1         0.1119376774E-02      0.2113945924E-02

    ------------------------------------------------
       NWT REQUIRED            3 OUTER ITERATIONS 
       AND A TOTAL OF          5 INNER ITERATIONS.
    ------------------------------------------------

 NO OUTPUT CONTROL FOR STRESS PERIOD   18   TIME STEP   22
 
 SOLVING FOR HEAD 
                                                   Max.-Head-Change                         Max.-Flux-Residual
  Residual-Control   Outer-Iter.   Inner-Iter.     Column Row Layer    Maximum-Head-Change  Column Row Layer    Maximum-Flux-Residual          L2-NORM 
          0                 1           2             1    1     1       0.3078955456E-02       1    1    1         0.1597895089E+00      0.3017577907E+00
          0                 2           2             1    1     1      -0.2994986127E-03       1    1    1        -0.1597896457E-01      0.3017577984E-01
          0                 3           1             1    1     1       0.2039474337E-04       1    1    1         0.1118527882E-02      0.2112308411E-02

    ------------------------------------------------
       NWT REQUIRED            3 OUTER ITERATIONS 
       AND A TOTAL OF          5 INNER ITERATIONS.
    ------------------------------------------------

 NO OUTPUT CONTROL FOR STRESS PERIOD   18   TIME STEP   23
 
 SOLVING FOR HEAD 
                                                   Max.-Head-Change                         Max.-Flux-Residual
  Residual-Control   Outer-Iter.   Inner-Iter.     Column Row Layer    Maximum-Head-Change  Column Row Layer    Maximum-Flux-Residual          L2-NORM 
          0                 1           2             1    1     1       0.3076631607E-02       1    1    1         0.1596686306E+00      0.3015161782E+00
          0                 2           2             1    1     1      -0.2992725648E-03       1    1    1        -0.1596687669E-01      0.3015161536E-01
          0                 3           1             1    1     1       0.2037935037E-04       1    1    1         0.1117681734E-02      0.2110611182E-02

    ------------------------------------------------
       NWT REQUIRED            3 OUTER ITERATIONS 
       AND A TOTAL OF          5 INNER ITERATIONS.
    ------------------------------------------------

 NO OUTPUT CONTROL FOR STRESS PERIOD   18   TIME STEP   24
 
 SOLVING FOR HEAD 
                                                   Max.-Head-Change                         Max.-Flux-Residual
  Residual-Control   Outer-Iter.   Inner-Iter.     Column Row Layer    Maximum-Head-Change  Column Row Layer    Maximum-Flux-Residual          L2-NORM 
          0                 1           2             1    1     1       0.3074315245E-02       1    1    1         0.1595481430E+00      0.3012840240E+00
          0                 2           2             1    1     1      -0.2990472451E-03       1    1    1        -0.1595482789E-01      0.3012840049E-01
          0                 3           1             1    1     1       0.2036400661E-04       1    1    1         0.1116838303E-02      0.2108986517E-02

    ------------------------------------------------
       NWT REQUIRED            3 OUTER ITERATIONS 
       AND A TOTAL OF          5 INNER ITERATIONS.
    ------------------------------------------------

 NO OUTPUT CONTROL FOR STRESS PERIOD   18   TIME STEP   25
 
 SOLVING FOR HEAD 
                                                   Max.-Head-Change                         Max.-Flux-Residual
  Residual-Control   Outer-Iter.   Inner-Iter.     Column Row Layer    Maximum-Head-Change  Column Row Layer    Maximum-Flux-Residual          L2-NORM 
          0                 1           2             1    1     1       0.3072006356E-02       1    1    1         0.1594280437E+00      0.3010465021E+00
          0                 2           2             1    1     1      -0.2988226524E-03       1    1    1        -0.1594281791E-01      0.3010464807E-01
          0                 3           1             1    1     1       0.2034871278E-04       1    1    1         0.1115997600E-02      0.2107323174E-02

    ------------------------------------------------
       NWT REQUIRED            3 OUTER ITERATIONS 
       AND A TOTAL OF          5 INNER ITERATIONS.
    ------------------------------------------------

 NO OUTPUT CONTROL FOR STRESS PERIOD   18   TIME STEP   26
 
 SOLVING FOR HEAD 
                                                   Max.-Head-Change                         Max.-Flux-Residual
  Residual-Control   Outer-Iter.   Inner-Iter.     Column Row Layer    Maximum-Head-Change  Column Row Layer    Maximum-Flux-Residual          L2-NORM 
          0                 1           2             1    1     1       0.3069704912E-02       1    1    1         0.1593083318E+00      0.3008126173E+00
          0                 2           2             1    1     1      -0.2985987841E-03       1    1    1        -0.1593084668E-01      0.3008125830E-01
          0                 3           1             1    1     1       0.2033346842E-04       1    1    1         0.1115159625E-02      0.2105685971E-02

    ------------------------------------------------
       NWT REQUIRED            3 OUTER ITERATIONS 
       AND A TOTAL OF          5 INNER ITERATIONS.
    ------------------------------------------------

 NO OUTPUT CONTROL FOR STRESS PERIOD   18   TIME STEP   27
 
 SOLVING FOR HEAD 
                                                   Max.-Head-Change                         Max.-Flux-Residual
  Residual-Control   Outer-Iter.   Inner-Iter.     Column Row Layer    Maximum-Head-Change  Column Row Layer    Maximum-Flux-Residual          L2-NORM 
          0                 1           2             1    1     1       0.3067388267E-02       1    1    1         0.1591878314E+00      0.3005904440E+00
          0                 2           2             1    1     1      -0.2983734364E-03       1    1    1        -0.1591879656E-01      0.3005904634E-01
          0                 3           1             1    1     1       0.2031812276E-04       1    1    1         0.1114316103E-02      0.2104133107E-02

    ------------------------------------------------
       NWT REQUIRED            3 OUTER ITERATIONS 
       AND A TOTAL OF          5 INNER ITERATIONS.
    ------------------------------------------------

 NO OUTPUT CONTROL FOR STRESS PERIOD   18   TIME STEP   28
 
 SOLVING FOR HEAD 
                                                   Max.-Head-Change                         Max.-Flux-Residual
  Residual-Control   Outer-Iter.   Inner-Iter.     Column Row Layer    Maximum-Head-Change  Column Row Layer    Maximum-Flux-Residual          L2-NORM 
          0                 1           2             1    1     1       0.3065101641E-02       1    1    1         0.1590688919E+00      0.3003527466E+00
          0                 2           2             1    1     1      -0.2981510096E-03       1    1    1        -0.1590690257E-01      0.3003527280E-01
          0                 3           1             1    1     1       0.2030297662E-04       1    1    1         0.1113483542E-02      0.2102469662E-02

    ------------------------------------------------
       NWT REQUIRED            3 OUTER ITERATIONS 
       AND A TOTAL OF          5 INNER ITERATIONS.
    ------------------------------------------------

 NO OUTPUT CONTROL FOR STRESS PERIOD   18   TIME STEP   29
 
 SOLVING FOR HEAD 
                                                   Max.-Head-Change                         Max.-Flux-Residual
  Residual-Control   Outer-Iter.   Inner-Iter.     Column Row Layer    Maximum-Head-Change  Column Row Layer    Maximum-Flux-Residual          L2-NORM 
          0                 1           2             1    1     1       0.3062822368E-02       1    1    1         0.1589503343E+00      0.3001220915E+00
          0                 2           2             1    1     1      -0.2979292977E-03       1    1    1        -0.1589504676E-01      0.3001220590E-01
          0                 3           1             1    1     1       0.2028787876E-04       1    1    1         0.1112653623E-02      0.2100855760E-02

    ------------------------------------------------
       NWT REQUIRED            3 OUTER ITERATIONS 
       AND A TOTAL OF          5 INNER ITERATIONS.
    ------------------------------------------------

 NO OUTPUT CONTROL FOR STRESS PERIOD   18   TIME STEP   30



 STREAM LISTING     PERIOD     18   STEP       30

 LAYER ROW COL. STREAM  RCH.  FLOW INTO     FLOW TO   FLOW OUT OF   OVRLND.     DIRECT     STREAM       STREAM     STREAM     STREAM   STREAMBED  STREAMBED
                SEG.NO.  NO.  STRM. RCH.    AQUIFER    STRM. RCH.    RUNOFF     PRECIP       ET          HEAD       DEPTH      WIDTH   CONDCTNC.   GRADIENT

   1    1    1     1     1    4.7251E+01  3.2762E-01   4.6923E+01  0.000E+00  0.000E+00  0.000E+00  1.09443E+03  1.381E+00  1.662E+01  7.477E-02  1.460E+00
   1    2    2     1     2    4.6923E+01  5.0760E-01   4.6416E+01  0.000E+00  0.000E+00  0.000E+00  1.08944E+03  1.379E+00  1.656E+01  1.159E-01  1.460E+00
   1    3    3     1     3    4.6416E+01  4.3310E-01   4.5982E+01  0.000E+00  0.000E+00  0.000E+00  1.08379E+03  1.376E+00  1.650E+01  9.898E-02  1.459E+00
   1    3    4     1     4    4.5982E+01  3.9899E-01   4.5583E+01  0.000E+00  0.000E+00  0.000E+00  1.07878E+03  1.373E+00  1.644E+01  9.124E-02  1.458E+00
   1    4    5     2     1    4.3583E+01  3.6514E-01   4.3218E+01  0.000E+00  0.000E+00  0.000E+00  1.07362E+03  1.681E+00  1.200E+01  7.800E-02  1.560E+00
   1    5    6     2     2    4.3218E+01  2.8043E-01   4.2938E+01  0.000E+00  0.000E+00  0.000E+00  1.06818E+03  1.674E+00  1.200E+01  6.000E-02  1.558E+00
   1    6    6     2     3    4.2938E+01  2.8003E-01   4.2658E+01  0.000E+00  0.000E+00  0.000E+00  1.06346E+03  1.667E+00  1.200E+01  6.000E-02  1.556E+00
   1    7    6     2     4    4.2658E+01  2.7964E-01   4.2378E+01  0.000E+00  0.000E+00  0.000E+00  1.05874E+03  1.661E+00  1.200E+01  6.000E-02  1.554E+00
   1    8    6     2     5    4.2378E+01  2.7925E-01   4.2099E+01  0.000E+00  0.000E+00  0.000E+00  1.05401E+03  1.654E+00  1.200E+01  6.000E-02  1.551E+00
   1    3    5     3     1    2.0000E+00  2.8252E-01   1.7175E+00  0.000E+00  0.000E+00  0.000E+00  1.07555E+03  1.909E+00  9.636E+00  7.227E-02  1.955E+00
   1    3    6     3     2    1.7175E+00  2.4905E-01   1.4684E+00  0.000E+00  0.000E+00  0.000E+00  1.07264E+03  1.727E+00  8.909E+00  6.682E-02  1.864E+00
   1    3    7     3     3    1.4684E+00  1.9718E-01   1.2712E+00  0.000E+00  0.000E+00  0.000E+00  1.06987E+03  1.555E+00  8.218E+00  5.547E-02  1.777E+00
   1    4    8     3     4    1.2712E+00  2.2567E-01   1.0456E+00  0.000E+00  0.000E+00  0.000E+00  1.06682E+03  1.364E+00  7.455E+00  6.709E-02  1.682E+00
   1    5    8     3     5    1.0456E+00  1.5790E-01   8.8768E-01  0.000E+00  0.000E+00  0.000E+00  1.06362E+03  1.164E+00  6.655E+00  4.991E-02  1.582E+00
   1    6    8     3     6    8.8768E-01  5.5980E-02   8.3170E-01  0.000E+00  0.000E+00  0.000E+00  1.06158E+03  1.036E+00  6.145E+00  1.844E-02  1.518E+00
   1    5   10     4     1    1.0000E+01  9.0919E-02   9.9091E+00  0.000E+00  0.000E+00  0.000E+00  1.07836E+03  6.368E-01  1.000E+01  2.500E-02  1.212E+00
   1    5    9     4     2    9.9091E+00  1.8158E-01   9.7275E+00  0.000E+00  0.000E+00  0.000E+00  1.07154E+03  6.315E-01  1.000E+01  5.000E-02  1.211E+00
   1    6    8     4     3    9.7275E+00  1.2689E-01   9.6006E+00  0.000E+00  0.000E+00  0.000E+00  1.06381E+03  6.256E-01  1.000E+01  3.500E-02  1.209E+00
   1    6    8     5     1    1.0432E+01  2.2686E-01   1.0205E+01  0.000E+00  0.000E+00  0.000E+00  1.05868E+03  6.790E-01  1.542E+01  6.166E-02  1.226E+00
   1    7    7     5     2    1.0205E+01  2.7894E-01   9.9265E+00  0.000E+00  0.000E+00  0.000E+00  1.05417E+03  6.732E-01  1.519E+01  7.594E-02  1.224E+00
   1    8    7     5     3    9.9265E+00  1.9221E-01   9.7343E+00  0.000E+00  0.000E+00  0.000E+00  1.04992E+03  6.676E-01  1.497E+01  5.241E-02  1.223E+00
   1    8    6     5     4    9.7343E+00  1.3577E-01   9.5985E+00  0.000E+00  0.000E+00  0.000E+00  1.04691E+03  6.637E-01  1.482E+01  3.706E-02  1.221E+00
   1    9    6     6     1    9.5985E+00  2.2097E-01   9.3776E+00  0.000E+00  0.000E+00  0.000E+00  1.04341E+03  6.828E-01  1.200E+01  6.000E-02  1.228E+00
   1   10    7     6     2    9.3776E+00  2.2039E-01   9.1572E+00  0.000E+00  0.000E+00  0.000E+00  1.03885E+03  6.732E-01  1.200E+01  6.000E-02  1.224E+00
   1   11    7     6     3    9.1572E+00  2.1981E-01   8.9374E+00  0.000E+00  0.000E+00  0.000E+00  1.03430E+03  6.636E-01  1.200E+01  6.000E-02  1.221E+00
   1   12    7     6     4    8.9374E+00  2.1923E-01   8.7181E+00  0.000E+00  0.000E+00  0.000E+00  1.02974E+03  6.539E-01  1.200E+01  6.000E-02  1.218E+00
   1   13    7     6     5    8.7181E+00 -1.1137E-01   8.8295E+00  0.000E+00  0.000E+00  0.000E+00  1.02656E+03  6.515E-01  1.200E+01  2.400E-01 -1.547E-01
   1   14    9     7     1    1.5000E+02  1.3420E+00   1.4866E+02  0.000E+00  0.000E+00  0.000E+00  1.03987E+03  2.288E+00  5.529E+01  5.593E-01  7.998E-01
   1   13    8     7     2    1.4866E+02  1.8468E+00   1.4681E+02  0.000E+00  0.000E+00  0.000E+00  1.03478E+03  2.279E+00  5.526E+01  6.148E-01  1.001E+00
   1   13    7     7     3    1.4681E+02  1.4883E+00   1.4532E+02  0.000E+00  0.000E+00  0.000E+00  1.02969E+03  2.270E+00  5.522E+01  5.584E-01  8.884E-01
   1   13    6     8     1    1.5415E+02  8.4017E-01   1.5331E+02  0.000E+00  0.000E+00  0.000E+00  1.02472E+03  2.843E+00  4.122E+01  4.201E-01  6.667E-01
   1   13    5     8     2    1.5331E+02  1.1034E-01   1.5320E+02  0.000E+00  0.000E+00  0.000E+00  1.01846E+03  2.840E+00  4.117E+01  4.196E-01  8.766E-02
   1   13    4     8     3    1.5320E+02 -2.6458E+00   1.5585E+02  0.000E+00  0.000E+00  0.000E+00  1.01222E+03  2.848E+00  4.130E+01  4.209E+00 -2.095E-01
   1   13    3     8     4    1.5585E+02 -3.7327E+00   1.5958E+02  0.000E+00  0.000E+00  0.000E+00  1.00600E+03  2.870E+00  4.162E+01  4.241E+00 -2.934E-01
   1   13    2     8     5    1.5958E+02 -2.5957E+00   1.6218E+02  0.000E+00  0.000E+00  0.000E+00  9.99767E+02  2.892E+00  4.193E+01  4.273E+00 -2.025E-01
   1   13    1     8     6    1.6218E+02 -1.9799E+00   1.6416E+02  0.000E+00  0.000E+00  0.000E+00  9.94782E+02  2.907E+00  4.215E+01  2.577E+00 -2.561E-01
   1    8    6     9     1    4.2099E+01  0.0000E+00   4.2099E+01  0.000E+00  0.000E+00  0.000E+00  1.08412E+03  5.368E+00  4.000E+00  0.000E+00  2.789E+00
   1    8    5     9     2    4.2099E+01  0.0000E+00   4.2099E+01  0.000E+00  0.000E+00  0.000E+00  1.08362E+03  5.368E+00  4.000E+00  0.000E+00  2.789E+00





UNSATURATED ZONE PACKAGE VOLUMETRIC BUDGET FOR  TIME STEP    30 STRESS PERIOD   18
  ------------------------------------------------------------------------------



     CUMULATIVE VOLUMES      L**3       RATES FOR THIS TIME STEP      L**3/T
     ------------------                 ------------------------

           IN:                                      IN:
           ---                                      ---
        INFILTRATION =    37964946.8366          INFILTRATION =           0.8475

          OUT:                                     OUT:
          ----                                     ----
              UZF ET =    37220029.0659                UZF ET =           0.8475
        UZF RECHARGE =       73224.0000          UZF RECHARGE =       0.0000E+00

            IN - OUT =      671693.7707              IN - OUT =       0.0000E+00

          STORAGE:                                 STORAGE:
          --------                                 --------
      STORAGE CHANGE =      671693.9465        STORAGE CHANGE =       1.6599E-15

 PERCENT DISCREPANCY IS DIFFERENCE BETWEEN IN-OUT MINUS CHANGE IN STORAGE
 DIVIDED BY THE AVERAGE OF IN AND OUT TIMES 100

 PERCENT DISCREPANCY =           0.00     PERCENT DISCREPANCY =           0.00






1
  VOLUMETRIC BUDGET FOR ENTIRE MODEL AT END OF TIME STEP   30, STRESS PERIOD  18
  ------------------------------------------------------------------------------

     CUMULATIVE VOLUMES      L**3       RATES FOR THIS TIME STEP      L**3/T
     ------------------                 ------------------------

           IN:                                      IN:
           ---                                      ---
             STORAGE     =    19426594.0000               STORAGE     =           0.2354
       CONSTANT HEAD     =           0.0000         CONSTANT HEAD     =           0.0000
     HEAD DEP BOUNDS     =    12809650.0000       HEAD DEP BOUNDS     =           0.2862
      STREAM LEAKAGE     =   528041216.0000        STREAM LEAKAGE     =          12.0614
        UZF RECHARGE     =       73223.9531          UZF RECHARGE     =           0.0000
               GW ET     =           0.0000                 GW ET     =           0.0000
     SURFACE LEAKAGE     =           0.0000       SURFACE LEAKAGE     =           0.0000

                TOTAL IN =   560350656.0000                  TOTAL IN =          12.5830

          OUT:                                     OUT:
          ----                                     ----
             STORAGE     =    50641112.0000               STORAGE     =           1.2309
       CONSTANT HEAD     =           0.0000         CONSTANT HEAD     =           0.0000
     HEAD DEP BOUNDS     =    12853715.0000       HEAD DEP BOUNDS     =           0.2869
      STREAM LEAKAGE     =   496864480.0000        STREAM LEAKAGE     =          11.0655
        UZF RECHARGE     =           0.0000          UZF RECHARGE     =           0.0000
               GW ET     =           0.0000                 GW ET     =           0.0000
     SURFACE LEAKAGE     =           0.0000       SURFACE LEAKAGE     =           0.0000

               TOTAL OUT =   560359296.0000                 TOTAL OUT =          12.5833

                IN - OUT =       -8640.0000                  IN - OUT =      -2.8038E-04

     PERCENT DISCREPANCY =          -0.00         PERCENT DISCREPANCY =          -0.00






         TIME SUMMARY AT END OF TIME STEP   30 IN STRESS PERIOD   18
                    SECONDS     MINUTES      HOURS       DAYS        YEARS
                    -----------------------------------------------------------
   TIME STEP LENGTH  87667.      1461.1      24.352      1.0147     2.77799E-03
 STRESS PERIOD TIME 2.63000E+06  43833.      730.56      30.440     8.33397E-02
         TOTAL TIME 4.47965E+07 7.46608E+05  12443.      518.48      1.4195    
1
1
                            STRESS PERIOD NO.   19, LENGTH =   2630000.    
                            -----------------------------------------------

                              NUMBER OF TIME STEPS =    30

                               MULTIPLIER FOR DELT =     1.000

                            INITIAL TIME STEP SIZE =   87666.66    

 REUSING NON-PARAMETER GHB CELLS FROM LAST STRESS PERIOD

      2 GHB CELLS

 REUSING STREAM SEGMENT DATA FROM LAST STRESS PERIOD



            AREAL INFILTRATION RATE
 READING ON UNIT   19 WITH FORMAT: (FREE)              

            1           2           3           4           5           6           7           8           9          10
 ........................................................................................................................
   1   1.0000E-10  2.0000E-10   0.000       0.000       0.000       0.000       0.000       0.000       0.000       0.000    
   2   2.0000E-10  1.0000E-10  2.0000E-10   0.000       0.000      8.0000E-10  8.0000E-10  5.0000E-10   0.000       0.000    
   3    0.000      5.0000E-10  1.0000E-10  1.0000E-10  8.0000E-10  8.0000E-10  5.0000E-10  5.0000E-10   0.000       0.000    
   4   8.0000E-10  5.0000E-10  1.0000E-10  1.0000E-10  1.0000E-10  1.0000E-10  1.0000E-10  1.0000E-10  2.0000E-10   0.000    
   5   8.0000E-10  5.0000E-10  1.0000E-10  1.0000E-10  1.0000E-10  1.0000E-10  1.0000E-10  1.0000E-10  1.0000E-10  1.0000E-10
   6   8.0000E-10  5.0000E-10  5.0000E-10  2.0000E-10  2.0000E-10  1.0000E-10  1.0000E-10  1.0000E-10  1.0000E-10  5.0000E-10
   7   8.0000E-10  5.0000E-10  5.0000E-10  2.0000E-10  2.0000E-10  1.0000E-10  1.0000E-10  2.0000E-10  2.0000E-10   0.000    
   8    0.000      5.0000E-10  5.0000E-10  2.0000E-10  2.0000E-10  1.0000E-10  1.0000E-10  2.0000E-10  5.0000E-10   0.000    
   9    0.000      5.0000E-10  5.0000E-10  2.0000E-10  2.0000E-10  1.0000E-10  1.0000E-10  2.0000E-10  5.0000E-10   0.000    
  10    0.000      5.0000E-10  5.0000E-10  2.0000E-10  2.0000E-10  1.0000E-10  1.0000E-10  2.0000E-10  5.0000E-10  8.0000E-10
  11    0.000      1.0000E-10  1.0000E-10  1.0000E-10  1.0000E-10  1.0000E-10  1.0000E-10  2.0000E-10  5.0000E-10   0.000    
  12   1.0000E-10  1.0000E-10  1.0000E-10  1.0000E-10  1.0000E-10  1.0000E-10  1.0000E-10  1.0000E-10  2.0000E-10   0.000    
  13   1.0000E-10  1.0000E-10  2.0000E-10  2.0000E-10  2.0000E-10  2.0000E-10  2.0000E-10  1.0000E-10  1.0000E-10   0.000    
  14    0.000      2.0000E-10  5.0000E-10  5.0000E-10  5.0000E-10  5.0000E-10  5.0000E-10  2.0000E-10  1.0000E-10   0.000    
  15    0.000       0.000      8.0000E-10  8.0000E-10  8.0000E-10  8.0000E-10   0.000       0.000       0.000       0.000    

                  ET RATE =  1.500000E-07

 USING ET EXTINCTION DEPTH FROM PREVIOUS STRESS PERIOD. CURRENT PERIOD IS:      19

 USING EXTINCTION WATER CONTENT FROM PREVIOUS STRESS PERIOD. CURRENT PERIOD IS:      19

 USING AIR ENTRY PRESSURE FROM PREVIOUS STRESS PERIOD. CURRENT PERIOD IS:      19

 USING ROOT PRESSURE HEAD FROM PREVIOUS STRESS PERIOD. CURRENT PERIOD IS:      19

 USING ROOT ACTIVITY FROM PREVIOUS STRESS PERIOD. CURRENT PERIOD IS:      19
 
 SOLVING FOR HEAD 
                                                   Max.-Head-Change                         Max.-Flux-Residual
  Residual-Control   Outer-Iter.   Inner-Iter.     Column Row Layer    Maximum-Head-Change  Column Row Layer    Maximum-Flux-Residual          L2-NORM 
          0                 1           2             1    1     1       0.2839416121E-02       1    1    1         0.1473455172E+00      0.2784176705E+00
          0                 2           2             1    1     1      -0.2761979186E-03       1    1    1        -0.1473456219E-01      0.2784176493E-01
          0                 3           1             1    1     1       0.1880805285E-04       1    1    1         0.1031419705E-02      0.1948923854E-02

    ------------------------------------------------
       NWT REQUIRED            3 OUTER ITERATIONS 
       AND A TOTAL OF          5 INNER ITERATIONS.
    ------------------------------------------------

 OUTPUT CONTROL FOR STRESS PERIOD   19   TIME STEP    1
    PRINT BUDGET
    SAVE BUDGET
 UBDSV1 SAVING "         STORAGE" ON UNIT 102 AT TIME STEP 1, STRESS PERIOD 19
 UBDSV2 SAVING "   CONSTANT HEAD" ON UNIT 102 AT TIME STEP 1, STRESS PERIOD 19
 UBDSV1 SAVING "FLOW RIGHT FACE " ON UNIT 102 AT TIME STEP 1, STRESS PERIOD 19
 UBDSV1 SAVING "FLOW FRONT FACE " ON UNIT 102 AT TIME STEP 1, STRESS PERIOD 19

  HEAD DEP BOUNDS   PERIOD   19   STEP     1
 BOUNDARY      1   LAYER   1   ROW    13   COL     1   RATE   -0.286913    
 BOUNDARY      2   LAYER   1   ROW    14   COL     9   RATE    0.286184    



 STREAM LISTING     PERIOD     19   STEP        1

 LAYER ROW COL. STREAM  RCH.  FLOW INTO     FLOW TO   FLOW OUT OF   OVRLND.     DIRECT     STREAM       STREAM     STREAM     STREAM   STREAMBED  STREAMBED
                SEG.NO.  NO.  STRM. RCH.    AQUIFER    STRM. RCH.    RUNOFF     PRECIP       ET          HEAD       DEPTH      WIDTH   CONDCTNC.   GRADIENT

   1    1    1     1     1    4.3652E+01  3.1614E-01   4.3336E+01  0.000E+00  0.000E+00  0.000E+00  1.09441E+03  1.357E+00  1.612E+01  7.255E-02  1.452E+00
   1    2    2     1     2    4.3336E+01  4.8972E-01   4.2846E+01  0.000E+00  0.000E+00  0.000E+00  1.08941E+03  1.355E+00  1.607E+01  1.125E-01  1.452E+00
   1    3    3     1     3    4.2846E+01  4.1777E-01   4.2428E+01  0.000E+00  0.000E+00  0.000E+00  1.08377E+03  1.351E+00  1.600E+01  9.601E-02  1.450E+00
   1    3    4     1     4    4.2428E+01  3.8480E-01   4.2043E+01  0.000E+00  0.000E+00  0.000E+00  1.07876E+03  1.349E+00  1.594E+01  8.849E-02  1.450E+00
   1    4    5     2     1    4.0043E+01  3.5862E-01   3.9685E+01  0.000E+00  0.000E+00  0.000E+00  1.07353E+03  1.598E+00  1.200E+01  7.800E-02  1.533E+00
   1    5    6     2     2    3.9685E+01  2.7540E-01   3.9409E+01  0.000E+00  0.000E+00  0.000E+00  1.06810E+03  1.590E+00  1.200E+01  6.000E-02  1.530E+00
   1    6    6     2     3    3.9409E+01  2.7500E-01   3.9134E+01  0.000E+00  0.000E+00  0.000E+00  1.06338E+03  1.583E+00  1.200E+01  6.000E-02  1.528E+00
   1    7    6     2     4    3.9134E+01  2.7461E-01   3.8860E+01  0.000E+00  0.000E+00  0.000E+00  1.05865E+03  1.577E+00  1.200E+01  6.000E-02  1.526E+00
   1    8    6     2     5    3.8860E+01  2.7421E-01   3.8585E+01  0.000E+00  0.000E+00  0.000E+00  1.05393E+03  1.570E+00  1.200E+01  6.000E-02  1.523E+00
   1    3    5     3     1    2.0000E+00  2.8252E-01   1.7175E+00  0.000E+00  0.000E+00  0.000E+00  1.07555E+03  1.909E+00  9.636E+00  7.227E-02  1.955E+00
   1    3    6     3     2    1.7175E+00  2.4905E-01   1.4684E+00  0.000E+00  0.000E+00  0.000E+00  1.07264E+03  1.727E+00  8.909E+00  6.682E-02  1.864E+00
   1    3    7     3     3    1.4684E+00  1.9718E-01   1.2712E+00  0.000E+00  0.000E+00  0.000E+00  1.06987E+03  1.555E+00  8.218E+00  5.547E-02  1.777E+00
   1    4    8     3     4    1.2712E+00  2.2567E-01   1.0456E+00  0.000E+00  0.000E+00  0.000E+00  1.06682E+03  1.364E+00  7.455E+00  6.709E-02  1.682E+00
   1    5    8     3     5    1.0456E+00  1.5790E-01   8.8768E-01  0.000E+00  0.000E+00  0.000E+00  1.06362E+03  1.164E+00  6.655E+00  4.991E-02  1.582E+00
   1    6    8     3     6    8.8768E-01  5.5980E-02   8.3170E-01  0.000E+00  0.000E+00  0.000E+00  1.06158E+03  1.036E+00  6.145E+00  1.844E-02  1.518E+00
   1    5   10     4     1    1.0000E+01  9.0919E-02   9.9091E+00  0.000E+00  0.000E+00  0.000E+00  1.07836E+03  6.368E-01  1.000E+01  2.500E-02  1.212E+00
   1    5    9     4     2    9.9091E+00  1.8158E-01   9.7275E+00  0.000E+00  0.000E+00  0.000E+00  1.07154E+03  6.315E-01  1.000E+01  5.000E-02  1.211E+00
   1    6    8     4     3    9.7275E+00  1.2689E-01   9.6006E+00  0.000E+00  0.000E+00  0.000E+00  1.06381E+03  6.256E-01  1.000E+01  3.500E-02  1.209E+00
   1    6    8     5     1    1.0432E+01  2.2686E-01   1.0205E+01  0.000E+00  0.000E+00  0.000E+00  1.05868E+03  6.790E-01  1.542E+01  6.166E-02  1.226E+00
   1    7    7     5     2    1.0205E+01  2.7894E-01   9.9265E+00  0.000E+00  0.000E+00  0.000E+00  1.05417E+03  6.732E-01  1.519E+01  7.594E-02  1.224E+00
   1    8    7     5     3    9.9265E+00  1.9221E-01   9.7343E+00  0.000E+00  0.000E+00  0.000E+00  1.04992E+03  6.676E-01  1.497E+01  5.241E-02  1.223E+00
   1    8    6     5     4    9.7343E+00  1.3577E-01   9.5985E+00  0.000E+00  0.000E+00  0.000E+00  1.04691E+03  6.637E-01  1.482E+01  3.706E-02  1.221E+00
   1    9    6     6     1    9.5985E+00  2.2097E-01   9.3776E+00  0.000E+00  0.000E+00  0.000E+00  1.04341E+03  6.828E-01  1.200E+01  6.000E-02  1.228E+00
   1   10    7     6     2    9.3776E+00  2.2039E-01   9.1572E+00  0.000E+00  0.000E+00  0.000E+00  1.03885E+03  6.732E-01  1.200E+01  6.000E-02  1.224E+00
   1   11    7     6     3    9.1572E+00  2.1981E-01   8.9374E+00  0.000E+00  0.000E+00  0.000E+00  1.03430E+03  6.636E-01  1.200E+01  6.000E-02  1.221E+00
   1   12    7     6     4    8.9374E+00  2.1923E-01   8.7181E+00  0.000E+00  0.000E+00  0.000E+00  1.02974E+03  6.539E-01  1.200E+01  6.000E-02  1.218E+00
   1   13    7     6     5    8.7181E+00 -1.1136E-01   8.8295E+00  0.000E+00  0.000E+00  0.000E+00  1.02656E+03  6.515E-01  1.200E+01  2.400E-01 -1.547E-01
   1   14    9     7     1    1.5000E+02  1.3421E+00   1.4866E+02  0.000E+00  0.000E+00  0.000E+00  1.03987E+03  2.288E+00  5.529E+01  5.593E-01  7.998E-01
   1   13    8     7     2    1.4866E+02  1.8468E+00   1.4681E+02  0.000E+00  0.000E+00  0.000E+00  1.03478E+03  2.279E+00  5.526E+01  6.148E-01  1.001E+00
   1   13    7     7     3    1.4681E+02  1.4883E+00   1.4532E+02  0.000E+00  0.000E+00  0.000E+00  1.02969E+03  2.270E+00  5.522E+01  5.584E-01  8.884E-01
   1   13    6     8     1    1.5415E+02  8.4018E-01   1.5331E+02  0.000E+00  0.000E+00  0.000E+00  1.02472E+03  2.843E+00  4.122E+01  4.201E-01  6.667E-01
   1   13    5     8     2    1.5331E+02  1.1035E-01   1.5320E+02  0.000E+00  0.000E+00  0.000E+00  1.01846E+03  2.840E+00  4.117E+01  4.196E-01  8.766E-02
   1   13    4     8     3    1.5320E+02 -2.6458E+00   1.5585E+02  0.000E+00  0.000E+00  0.000E+00  1.01222E+03  2.848E+00  4.130E+01  4.209E+00 -2.095E-01
   1   13    3     8     4    1.5585E+02 -3.7327E+00   1.5958E+02  0.000E+00  0.000E+00  0.000E+00  1.00600E+03  2.870E+00  4.162E+01  4.241E+00 -2.934E-01
   1   13    2     8     5    1.5958E+02 -2.5957E+00   1.6218E+02  0.000E+00  0.000E+00  0.000E+00  9.99767E+02  2.892E+00  4.193E+01  4.273E+00 -2.025E-01
   1   13    1     8     6    1.6218E+02 -1.9799E+00   1.6416E+02  0.000E+00  0.000E+00  0.000E+00  9.94782E+02  2.907E+00  4.215E+01  2.577E+00 -2.561E-01
   1    8    6     9     1    3.8585E+01  0.0000E+00   3.8585E+01  0.000E+00  0.000E+00  0.000E+00  1.08384E+03  5.095E+00  4.000E+00  0.000E+00  2.698E+00
   1    8    5     9     2    3.8585E+01  0.0000E+00   3.8585E+01  0.000E+00  0.000E+00  0.000E+00  1.08334E+03  5.095E+00  4.000E+00  0.000E+00  2.698E+00



 UBDSV3 SAVING "           GW ET" ON UNIT  61 AT TIME STEP 1, STRESS PERIOD 19
 UBDSV3 SAVING "    UZF RECHARGE" ON UNIT  61 AT TIME STEP 1, STRESS PERIOD 19
 UBDSV3 SAVING " SURFACE LEAKAGE" ON UNIT  61 AT TIME STEP 1, STRESS PERIOD 19
 UBDSV3 SAVING "       HORT+DUNN" ON UNIT  61 AT TIME STEP 1, STRESS PERIOD 19
 UBDSV3 SAVING "  STORAGE CHANGE" ON UNIT  61 AT TIME STEP 1, STRESS PERIOD 19


UNSATURATED ZONE PACKAGE VOLUMETRIC BUDGET FOR  TIME STEP     1 STRESS PERIOD   19
  ------------------------------------------------------------------------------



     CUMULATIVE VOLUMES      L**3       RATES FOR THIS TIME STEP      L**3/T
     ------------------                 ------------------------

           IN:                                      IN:
           ---                                      ---
        INFILTRATION =    38039244.3324          INFILTRATION =           0.8475

          OUT:                                     OUT:
          ----                                     ----
              UZF ET =    37294326.5617                UZF ET =           0.8475
        UZF RECHARGE =       73224.0000          UZF RECHARGE =       0.0000E+00

            IN - OUT =      671693.7707              IN - OUT =       0.0000E+00

          STORAGE:                                 STORAGE:
          --------                                 --------
      STORAGE CHANGE =      671693.9465        STORAGE CHANGE =       1.6599E-16

 PERCENT DISCREPANCY IS DIFFERENCE BETWEEN IN-OUT MINUS CHANGE IN STORAGE
 DIVIDED BY THE AVERAGE OF IN AND OUT TIMES 100

 PERCENT DISCREPANCY =           0.00     PERCENT DISCREPANCY =           0.00






1
  VOLUMETRIC BUDGET FOR ENTIRE MODEL AT END OF TIME STEP    1, STRESS PERIOD  19
  ------------------------------------------------------------------------------

     CUMULATIVE VOLUMES      L**3       RATES FOR THIS TIME STEP      L**3/T
     ------------------                 ------------------------

           IN:                                      IN:
           ---                                      ---
             STORAGE     =    19447188.0000               STORAGE     =           0.2349
       CONSTANT HEAD     =           0.0000         CONSTANT HEAD     =           0.0000
     HEAD DEP BOUNDS     =    12834739.0000       HEAD DEP BOUNDS     =           0.2862
      STREAM LEAKAGE     =   529091104.0000        STREAM LEAKAGE     =          11.9759
        UZF RECHARGE     =       73223.9531          UZF RECHARGE     =           0.0000
               GW ET     =           0.0000                 GW ET     =           0.0000
     SURFACE LEAKAGE     =           0.0000       SURFACE LEAKAGE     =           0.0000

                TOTAL IN =   561446272.0000                  TOTAL IN =          12.4969

          OUT:                                     OUT:
          ----                                     ----
             STORAGE     =    50741480.0000               STORAGE     =           1.1449
       CONSTANT HEAD     =           0.0000         CONSTANT HEAD     =           0.0000
     HEAD DEP BOUNDS     =    12878868.0000       HEAD DEP BOUNDS     =           0.2869
      STREAM LEAKAGE     =   497834560.0000        STREAM LEAKAGE     =          11.0654
        UZF RECHARGE     =           0.0000          UZF RECHARGE     =           0.0000
               GW ET     =           0.0000                 GW ET     =           0.0000
     SURFACE LEAKAGE     =           0.0000       SURFACE LEAKAGE     =           0.0000

               TOTAL OUT =   561454912.0000                 TOTAL OUT =          12.4972

                IN - OUT =       -8640.0000                  IN - OUT =      -2.5558E-04

     PERCENT DISCREPANCY =          -0.00         PERCENT DISCREPANCY =          -0.00






         TIME SUMMARY AT END OF TIME STEP    1 IN STRESS PERIOD   19
                    SECONDS     MINUTES      HOURS       DAYS        YEARS
                    -----------------------------------------------------------
   TIME STEP LENGTH  87667.      1461.1      24.352      1.0147     2.77799E-03
 STRESS PERIOD TIME  87667.      1461.1      24.352      1.0147     2.77799E-03
         TOTAL TIME 4.48841E+07 7.48069E+05  12468.      519.49      1.4223    
1
 
 SOLVING FOR HEAD 
                                                   Max.-Head-Change                         Max.-Flux-Residual
  Residual-Control   Outer-Iter.   Inner-Iter.     Column Row Layer    Maximum-Head-Change  Column Row Layer    Maximum-Flux-Residual          L2-NORM 
          0                 1           2             1    1     1       0.2828020037E-02       1    1    1         0.1467534393E+00      0.2773181453E+00
          0                 2           2             1    1     1      -0.2750893884E-03       1    1    1        -0.1467535426E-01      0.2773181455E-01
          0                 3           1             1    1     1       0.1873256615E-04       1    1    1         0.1027275161E-02      0.1941227380E-02

    ------------------------------------------------
       NWT REQUIRED            3 OUTER ITERATIONS 
       AND A TOTAL OF          5 INNER ITERATIONS.
    ------------------------------------------------

 NO OUTPUT CONTROL FOR STRESS PERIOD   19   TIME STEP    2
 
 SOLVING FOR HEAD 
                                                   Max.-Head-Change                         Max.-Flux-Residual
  Residual-Control   Outer-Iter.   Inner-Iter.     Column Row Layer    Maximum-Head-Change  Column Row Layer    Maximum-Flux-Residual          L2-NORM 
          0                 1           2             1    1     1       0.2826136466E-02       1    1    1         0.1466554850E+00      0.2771027596E+00
          0                 2           2             1    1     1      -0.2749061678E-03       1    1    1        -0.1466555880E-01      0.2771027666E-01
          0                 3           1             1    1     1       0.1872008945E-04       1    1    1         0.1026589478E-02      0.1939719375E-02

    ------------------------------------------------
       NWT REQUIRED            3 OUTER ITERATIONS 
       AND A TOTAL OF          5 INNER ITERATIONS.
    ------------------------------------------------

 NO OUTPUT CONTROL FOR STRESS PERIOD   19   TIME STEP    3
 
 SOLVING FOR HEAD 
                                                   Max.-Head-Change                         Max.-Flux-Residual
  Residual-Control   Outer-Iter.   Inner-Iter.     Column Row Layer    Maximum-Head-Change  Column Row Layer    Maximum-Flux-Residual          L2-NORM 
          0                 1           2             1    1     1       0.2824258538E-02       1    1    1         0.1465578252E+00      0.2768893507E+00
          0                 2           2             1    1     1      -0.2747234960E-03       1    1    1        -0.1465579280E-01      0.2768893359E-01
          0                 3           1             1    1     1       0.1870765037E-04       1    1    1         0.1025905839E-02      0.1938703097E-02

    ------------------------------------------------
       NWT REQUIRED            3 OUTER ITERATIONS 
       AND A TOTAL OF          5 INNER ITERATIONS.
    ------------------------------------------------

 NO OUTPUT CONTROL FOR STRESS PERIOD   19   TIME STEP    4
 
 SOLVING FOR HEAD 
                                                   Max.-Head-Change                         Max.-Flux-Residual
  Residual-Control   Outer-Iter.   Inner-Iter.     Column Row Layer    Maximum-Head-Change  Column Row Layer    Maximum-Flux-Residual          L2-NORM 
          0                 1           2             1    1     1       0.2822386248E-02       1    1    1         0.1464604579E+00      0.2766828272E+00
          0                 2           2             1    1     1      -0.2745413727E-03       1    1    1        -0.1464605602E-01      0.2766827901E-01
          0                 3           1             1    1     1       0.1869524822E-04       1    1    1         0.1025224277E-02      0.1936783885E-02

    ------------------------------------------------
       NWT REQUIRED            3 OUTER ITERATIONS 
       AND A TOTAL OF          5 INNER ITERATIONS.
    ------------------------------------------------

 NO OUTPUT CONTROL FOR STRESS PERIOD   19   TIME STEP    5
 
 SOLVING FOR HEAD 
                                                   Max.-Head-Change                         Max.-Flux-Residual
  Residual-Control   Outer-Iter.   Inner-Iter.     Column Row Layer    Maximum-Head-Change  Column Row Layer    Maximum-Flux-Residual          L2-NORM 
          0                 1           2             1    1     1       0.2820519576E-02       1    1    1         0.1463633830E+00      0.2764789874E+00
          0                 2           2             1    1     1      -0.2743597957E-03       1    1    1        -0.1463634848E-01      0.2764789504E-01
          0                 3           1             1    1     1       0.1868288370E-04       1    1    1         0.1024544747E-02      0.1935367919E-02

    ------------------------------------------------
       NWT REQUIRED            3 OUTER ITERATIONS 
       AND A TOTAL OF          5 INNER ITERATIONS.
    ------------------------------------------------

 NO OUTPUT CONTROL FOR STRESS PERIOD   19   TIME STEP    6
 
 SOLVING FOR HEAD 
                                                   Max.-Head-Change                         Max.-Flux-Residual
  Residual-Control   Outer-Iter.   Inner-Iter.     Column Row Layer    Maximum-Head-Change  Column Row Layer    Maximum-Flux-Residual          L2-NORM 
          0                 1           2             1    1     1       0.2818658504E-02       1    1    1         0.1462665993E+00      0.2762759006E+00
          0                 2           2             1    1     1      -0.2741787638E-03       1    1    1        -0.1462667011E-01      0.2762758396E-01
          0                 3           1             1    1     1       0.1867055562E-04       1    1    1         0.1023867241E-02      0.1933956785E-02

    ------------------------------------------------
       NWT REQUIRED            3 OUTER ITERATIONS 
       AND A TOTAL OF          5 INNER ITERATIONS.
    ------------------------------------------------

 NO OUTPUT CONTROL FOR STRESS PERIOD   19   TIME STEP    7
 
 SOLVING FOR HEAD 
                                                   Max.-Head-Change                         Max.-Flux-Residual
  Residual-Control   Outer-Iter.   Inner-Iter.     Column Row Layer    Maximum-Head-Change  Column Row Layer    Maximum-Flux-Residual          L2-NORM 
          0                 1           2             1    1     1       0.2816803036E-02       1    1    1         0.1461701060E+00      0.2760803458E+00
          0                 2           2             1    1     1      -0.2739982768E-03       1    1    1        -0.1461702074E-01      0.2760803458E-01
          0                 3           1             1    1     1       0.1865826542E-04       1    1    1         0.1023191799E-02      0.1932563197E-02

    ------------------------------------------------
       NWT REQUIRED            3 OUTER ITERATIONS 
       AND A TOTAL OF          5 INNER ITERATIONS.
    ------------------------------------------------

 NO OUTPUT CONTROL FOR STRESS PERIOD   19   TIME STEP    8
 
 SOLVING FOR HEAD 
                                                   Max.-Head-Change                         Max.-Flux-Residual
  Residual-Control   Outer-Iter.   Inner-Iter.     Column Row Layer    Maximum-Head-Change  Column Row Layer    Maximum-Flux-Residual          L2-NORM 
          0                 1           2             1    1     1       0.2814953127E-02       1    1    1         0.1460739033E+00      0.2758805664E+00
          0                 2           2             1    1     1      -0.2738183304E-03       1    1    1        -0.1460740044E-01      0.2758805721E-01
          0                 3           1             1    1     1       0.1864601142E-04       1    1    1         0.1022518351E-02      0.1931165686E-02

    ------------------------------------------------
       NWT REQUIRED            3 OUTER ITERATIONS 
       AND A TOTAL OF          5 INNER ITERATIONS.
    ------------------------------------------------

 NO OUTPUT CONTROL FOR STRESS PERIOD   19   TIME STEP    9
 
 SOLVING FOR HEAD 
                                                   Max.-Head-Change                         Max.-Flux-Residual
  Residual-Control   Outer-Iter.   Inner-Iter.     Column Row Layer    Maximum-Head-Change  Column Row Layer    Maximum-Flux-Residual          L2-NORM 
          0                 1           2             1    1     1       0.2813108757E-02       1    1    1         0.1459779888E+00      0.2756894604E+00
          0                 2           2             1    1     1      -0.2736389228E-03       1    1    1        -0.1459780894E-01      0.2756894122E-01
          0                 3           1             1    1     1       0.1863379458E-04       1    1    1         0.1021846968E-02      0.1929826393E-02

    ------------------------------------------------
       NWT REQUIRED            3 OUTER ITERATIONS 
       AND A TOTAL OF          5 INNER ITERATIONS.
    ------------------------------------------------

 NO OUTPUT CONTROL FOR STRESS PERIOD   19   TIME STEP   10
 
 SOLVING FOR HEAD 
                                                   Max.-Head-Change                         Max.-Flux-Residual
  Residual-Control   Outer-Iter.   Inner-Iter.     Column Row Layer    Maximum-Head-Change  Column Row Layer    Maximum-Flux-Residual          L2-NORM 
          0                 1           2             1    1     1       0.2811269907E-02       1    1    1         0.1458823615E+00      0.2755001165E+00
          0                 2           2             1    1     1      -0.2734600522E-03       1    1    1        -0.1458824617E-01      0.2755001175E-01
          0                 3           1             1    1     1       0.1862161419E-04       1    1    1         0.1021177574E-02      0.1928500979E-02

    ------------------------------------------------
       NWT REQUIRED            3 OUTER ITERATIONS 
       AND A TOTAL OF          5 INNER ITERATIONS.
    ------------------------------------------------

 NO OUTPUT CONTROL FOR STRESS PERIOD   19   TIME STEP   11
 
 SOLVING FOR HEAD 
                                                   Max.-Head-Change                         Max.-Flux-Residual
  Residual-Control   Outer-Iter.   Inner-Iter.     Column Row Layer    Maximum-Head-Change  Column Row Layer    Maximum-Flux-Residual          L2-NORM 
          0                 1           2             1    1     1       0.2809436582E-02       1    1    1         0.1457870204E+00      0.2753123358E+00
          0                 2           2             1    1     1      -0.2732817193E-03       1    1    1        -0.1457871204E-01      0.2753123337E-01
          0                 3           1             1    1     1       0.1860947025E-04       1    1    1         0.1020510170E-02      0.1927185697E-02

    ------------------------------------------------
       NWT REQUIRED            3 OUTER ITERATIONS 
       AND A TOTAL OF          5 INNER ITERATIONS.
    ------------------------------------------------

 NO OUTPUT CONTROL FOR STRESS PERIOD   19   TIME STEP   12
 
 SOLVING FOR HEAD 
                                                   Max.-Head-Change                         Max.-Flux-Residual
  Residual-Control   Outer-Iter.   Inner-Iter.     Column Row Layer    Maximum-Head-Change  Column Row Layer    Maximum-Flux-Residual          L2-NORM 
          0                 1           2             1    1     1       0.2807608737E-02       1    1    1         0.1456919658E+00      0.2751259596E+00
          0                 2           2             1    1     1      -0.2731039192E-03       1    1    1        -0.1456920653E-01      0.2751259429E-01
          0                 3           1             1    1     1       0.1859736276E-04       1    1    1         0.1019844793E-02      0.1925882461E-02

    ------------------------------------------------
       NWT REQUIRED            3 OUTER ITERATIONS 
       AND A TOTAL OF          5 INNER ITERATIONS.
    ------------------------------------------------

 NO OUTPUT CONTROL FOR STRESS PERIOD   19   TIME STEP   13
 
 SOLVING FOR HEAD 
                                                   Max.-Head-Change                         Max.-Flux-Residual
  Residual-Control   Outer-Iter.   Inner-Iter.     Column Row Layer    Maximum-Head-Change  Column Row Layer    Maximum-Flux-Residual          L2-NORM 
          0                 1           2             1    1     1       0.2805786353E-02       1    1    1         0.1455971953E+00      0.2749423907E+00
          0                 2           2             1    1     1      -0.2729266507E-03       1    1    1        -0.1455972944E-01      0.2749423560E-01
          0                 3           1             1    1     1       0.1858529171E-04       1    1    1         0.1019181417E-02      0.1924597646E-02

    ------------------------------------------------
       NWT REQUIRED            3 OUTER ITERATIONS 
       AND A TOTAL OF          5 INNER ITERATIONS.
    ------------------------------------------------

 NO OUTPUT CONTROL FOR STRESS PERIOD   19   TIME STEP   14
 
 SOLVING FOR HEAD 
                                                   Max.-Head-Change                         Max.-Flux-Residual
  Residual-Control   Outer-Iter.   Inner-Iter.     Column Row Layer    Maximum-Head-Change  Column Row Layer    Maximum-Flux-Residual          L2-NORM 
          0                 1           2             1    1     1       0.2803969411E-02       1    1    1         0.1455027079E+00      0.2747623484E+00
          0                 2           2             1    1     1      -0.2727499113E-03       1    1    1        -0.1455028069E-01      0.2747790421E-01
          0                 3           1             1    1     1       0.1857325616E-04       1    1    1         0.1018519990E-02      0.1923448434E-02

    ------------------------------------------------
       NWT REQUIRED            3 OUTER ITERATIONS 
       AND A TOTAL OF          5 INNER ITERATIONS.
    ------------------------------------------------

 NO OUTPUT CONTROL FOR STRESS PERIOD   19   TIME STEP   15
 
 SOLVING FOR HEAD 
                                                   Max.-Head-Change                         Max.-Flux-Residual
  Residual-Control   Outer-Iter.   Inner-Iter.     Column Row Layer    Maximum-Head-Change  Column Row Layer    Maximum-Flux-Residual          L2-NORM 
          0                 1           2             1    1     1       0.2802157915E-02       1    1    1         0.1454085027E+00      0.2745789655E+00
          0                 2           2             1    1     1      -0.2725737016E-03       1    1    1        -0.1454086013E-01      0.2745789917E-01
          0                 3           1             1    1     1       0.1856125707E-04       1    1    1         0.1017860548E-02      0.1922053959E-02

    ------------------------------------------------
       NWT REQUIRED            3 OUTER ITERATIONS 
       AND A TOTAL OF          5 INNER ITERATIONS.
    ------------------------------------------------

 NO OUTPUT CONTROL FOR STRESS PERIOD   19   TIME STEP   16
 
 SOLVING FOR HEAD 
                                                   Max.-Head-Change                         Max.-Flux-Residual
  Residual-Control   Outer-Iter.   Inner-Iter.     Column Row Layer    Maximum-Head-Change  Column Row Layer    Maximum-Flux-Residual          L2-NORM 
          0                 1           2             1    1     1       0.2800351821E-02       1    1    1         0.1453145798E+00      0.2744005933E+00
          0                 2           2             1    1     1      -0.2723980174E-03       1    1    1        -0.1453146781E-01      0.2744005510E-01
          0                 3           1             1    1     1       0.1854929394E-04       1    1    1         0.1017203095E-02      0.1920805528E-02

    ------------------------------------------------
       NWT REQUIRED            3 OUTER ITERATIONS 
       AND A TOTAL OF          5 INNER ITERATIONS.
    ------------------------------------------------

 NO OUTPUT CONTROL FOR STRESS PERIOD   19   TIME STEP   17
 
 SOLVING FOR HEAD 
                                                   Max.-Head-Change                         Max.-Flux-Residual
  Residual-Control   Outer-Iter.   Inner-Iter.     Column Row Layer    Maximum-Head-Change  Column Row Layer    Maximum-Flux-Residual          L2-NORM 
          0                 1           2             1    1     1       0.2798551110E-02       1    1    1         0.1452209371E+00      0.2742216879E+00
          0                 2           2             1    1     1      -0.2722228572E-03       1    1    1        -0.1452210352E-01      0.2742216508E-01
          0                 3           1             1    1     1       0.1853736632E-04       1    1    1         0.1016547612E-02      0.1919554414E-02

    ------------------------------------------------
       NWT REQUIRED            3 OUTER ITERATIONS 
       AND A TOTAL OF          5 INNER ITERATIONS.
    ------------------------------------------------

 NO OUTPUT CONTROL FOR STRESS PERIOD   19   TIME STEP   18
 
 SOLVING FOR HEAD 
                                                   Max.-Head-Change                         Max.-Flux-Residual
  Residual-Control   Outer-Iter.   Inner-Iter.     Column Row Layer    Maximum-Head-Change  Column Row Layer    Maximum-Flux-Residual          L2-NORM 
          0                 1           2             1    1     1       0.2796733138E-02       1    1    1         0.1451263971E+00      0.2740439269E+00
          0                 2           2             1    1     1      -0.2720460176E-03       1    1    1        -0.1451264948E-01      0.2740439101E-01
          0                 3           1             1    1     1       0.1852532391E-04       1    1    1         0.1015885822E-02      0.1918308116E-02

    ------------------------------------------------
       NWT REQUIRED            3 OUTER ITERATIONS 
       AND A TOTAL OF          5 INNER ITERATIONS.
    ------------------------------------------------

 NO OUTPUT CONTROL FOR STRESS PERIOD   19   TIME STEP   19
 
 SOLVING FOR HEAD 
                                                   Max.-Head-Change                         Max.-Flux-Residual
  Residual-Control   Outer-Iter.   Inner-Iter.     Column Row Layer    Maximum-Head-Change  Column Row Layer    Maximum-Flux-Residual          L2-NORM 
          0                 1           2             1    1     1       0.2794943200E-02       1    1    1         0.1450333149E+00      0.2738684973E+00
          0                 2           2             1    1     1      -0.2718719048E-03       1    1    1        -0.1450334123E-01      0.2738684631E-01
          0                 3           1             1    1     1       0.1851346776E-04       1    1    1         0.1015234247E-02      0.1917077963E-02

    ------------------------------------------------
       NWT REQUIRED            3 OUTER ITERATIONS 
       AND A TOTAL OF          5 INNER ITERATIONS.
    ------------------------------------------------

 NO OUTPUT CONTROL FOR STRESS PERIOD   19   TIME STEP   20
 
 SOLVING FOR HEAD 
                                                   Max.-Head-Change                         Max.-Flux-Residual
  Residual-Control   Outer-Iter.   Inner-Iter.     Column Row Layer    Maximum-Head-Change  Column Row Layer    Maximum-Flux-Residual          L2-NORM 
          0                 1           2             1    1     1       0.2793158586E-02       1    1    1         0.1449405098E+00      0.2736987180E+00
          0                 2           2             1    1     1      -0.2716983100E-03       1    1    1        -0.1449406068E-01      0.2736986682E-01
          0                 3           1             1    1     1       0.1850164641E-04       1    1    1         0.1014584596E-02      0.1915890134E-02

    ------------------------------------------------
       NWT REQUIRED            3 OUTER ITERATIONS 
       AND A TOTAL OF          5 INNER ITERATIONS.
    ------------------------------------------------

 NO OUTPUT CONTROL FOR STRESS PERIOD   19   TIME STEP   21
 
 SOLVING FOR HEAD 
                                                   Max.-Head-Change                         Max.-Flux-Residual
  Residual-Control   Outer-Iter.   Inner-Iter.     Column Row Layer    Maximum-Head-Change  Column Row Layer    Maximum-Flux-Residual          L2-NORM 
          0                 1           2             1    1     1       0.2791379304E-02       1    1    1         0.1448479808E+00      0.2735245435E+00
          0                 2           2             1    1     1      -0.2715252341E-03       1    1    1        -0.1448480776E-01      0.2735245137E-01
          0                 3           1             1    1     1       0.1848986055E-04       1    1    1         0.1013936894E-02      0.1914671641E-02

    ------------------------------------------------
       NWT REQUIRED            3 OUTER ITERATIONS 
       AND A TOTAL OF          5 INNER ITERATIONS.
    ------------------------------------------------

 NO OUTPUT CONTROL FOR STRESS PERIOD   19   TIME STEP   22
 
 SOLVING FOR HEAD 
                                                   Max.-Head-Change                         Max.-Flux-Residual
  Residual-Control   Outer-Iter.   Inner-Iter.     Column Row Layer    Maximum-Head-Change  Column Row Layer    Maximum-Flux-Residual          L2-NORM 
          0                 1           2             1    1     1       0.2789605308E-02       1    1    1         0.1447557282E+00      0.2733492780E+00
          0                 2           2             1    1     1      -0.2713526720E-03       1    1    1        -0.1447558247E-01      0.2733492469E-01
          0                 3           1             1    1     1       0.1847810949E-04       1    1    1         0.1013291118E-02      0.1913475196E-02

    ------------------------------------------------
       NWT REQUIRED            3 OUTER ITERATIONS 
       AND A TOTAL OF          5 INNER ITERATIONS.
    ------------------------------------------------

 NO OUTPUT CONTROL FOR STRESS PERIOD   19   TIME STEP   23
 
 SOLVING FOR HEAD 
                                                   Max.-Head-Change                         Max.-Flux-Residual
  Residual-Control   Outer-Iter.   Inner-Iter.     Column Row Layer    Maximum-Head-Change  Column Row Layer    Maximum-Flux-Residual          L2-NORM 
          0                 1           2             1    1     1       0.2787813946E-02       1    1    1         0.1446625729E+00      0.2731781692E+00
          0                 2           2             1    1     1      -0.2711784208E-03       1    1    1        -0.1446626689E-01      0.2731781335E-01
          0                 3           1             1    1     1       0.1846624363E-04       1    1    1         0.1012639025E-02      0.1912245109E-02

    ------------------------------------------------
       NWT REQUIRED            3 OUTER ITERATIONS 
       AND A TOTAL OF          5 INNER ITERATIONS.
    ------------------------------------------------

 NO OUTPUT CONTROL FOR STRESS PERIOD   19   TIME STEP   24
 
 SOLVING FOR HEAD 
                                                   Max.-Head-Change                         Max.-Flux-Residual
  Residual-Control   Outer-Iter.   Inner-Iter.     Column Row Layer    Maximum-Head-Change  Column Row Layer    Maximum-Flux-Residual          L2-NORM 
          0                 1           2             1    1     1       0.2786050531E-02       1    1    1         0.1445708709E+00      0.2730070745E+00
          0                 2           2             1    1     1      -0.2710068883E-03       1    1    1        -0.1445709667E-01      0.2730070433E-01
          0                 3           1             1    1     1       0.1845456310E-04       1    1    1         0.1011997121E-02      0.1911048246E-02

    ------------------------------------------------
       NWT REQUIRED            3 OUTER ITERATIONS 
       AND A TOTAL OF          5 INNER ITERATIONS.
    ------------------------------------------------

 NO OUTPUT CONTROL FOR STRESS PERIOD   19   TIME STEP   25
 
 SOLVING FOR HEAD 
                                                   Max.-Head-Change                         Max.-Flux-Residual
  Residual-Control   Outer-Iter.   Inner-Iter.     Column Row Layer    Maximum-Head-Change  Column Row Layer    Maximum-Flux-Residual          L2-NORM 
          0                 1           2             1    1     1       0.2784292345E-02       1    1    1         0.1444794410E+00      0.2728359292E+00
          0                 2           2             1    1     1      -0.2708358643E-03       1    1    1        -0.1444795365E-01      0.2728359001E-01
          0                 3           1             1    1     1       0.1844291688E-04       1    1    1         0.1011357110E-02      0.1909851436E-02

    ------------------------------------------------
       NWT REQUIRED            3 OUTER ITERATIONS 
       AND A TOTAL OF          5 INNER ITERATIONS.
    ------------------------------------------------

 NO OUTPUT CONTROL FOR STRESS PERIOD   19   TIME STEP   26
 
 SOLVING FOR HEAD 
                                                   Max.-Head-Change                         Max.-Flux-Residual
  Residual-Control   Outer-Iter.   Inner-Iter.     Column Row Layer    Maximum-Head-Change  Column Row Layer    Maximum-Flux-Residual          L2-NORM 
          0                 1           2             1    1     1       0.2782539394E-02       1    1    1         0.1443882822E+00      0.2726684489E+00
          0                 2           2             1    1     1      -0.2706653493E-03       1    1    1        -0.1443883774E-01      0.2726684434E-01
          0                 3           1             1    1     1       0.1843130522E-04       1    1    1         0.1010718980E-02      0.1908680268E-02

    ------------------------------------------------
       NWT REQUIRED            3 OUTER ITERATIONS 
       AND A TOTAL OF          5 INNER ITERATIONS.
    ------------------------------------------------

 NO OUTPUT CONTROL FOR STRESS PERIOD   19   TIME STEP   27
 
 SOLVING FOR HEAD 
                                                   Max.-Head-Change                         Max.-Flux-Residual
  Residual-Control   Outer-Iter.   Inner-Iter.     Column Row Layer    Maximum-Head-Change  Column Row Layer    Maximum-Flux-Residual          L2-NORM 
          0                 1           2             1    1     1       0.2780768987E-02       1    1    1         0.1442962177E+00      0.2724963652E+00
          0                 2           2             1    1     1      -0.2704931365E-03       1    1    1        -0.1442963126E-01      0.2724963607E-01
          0                 3           1             1    1     1       0.1841957829E-04       1    1    1         0.1010074525E-02      0.1907476173E-02

    ------------------------------------------------
       NWT REQUIRED            3 OUTER ITERATIONS 
       AND A TOTAL OF          5 INNER ITERATIONS.
    ------------------------------------------------

 NO OUTPUT CONTROL FOR STRESS PERIOD   19   TIME STEP   28
 
 SOLVING FOR HEAD 
                                                   Max.-Head-Change                         Max.-Flux-Residual
  Residual-Control   Outer-Iter.   Inner-Iter.     Column Row Layer    Maximum-Head-Change  Column Row Layer    Maximum-Flux-Residual          L2-NORM 
          0                 1           2             1    1     1       0.2694783141E-02       1    1    1         0.1398296295E+00      0.2644894340E+00
          0                 2           2             1    1     1      -0.2621290438E-03       1    1    1        -0.1398297146E-01      0.2644893882E-01
          0                 3           1             1    1     1       0.1785001507E-04       1    1    1         0.9788083526E-03      0.1851425668E-02

    ------------------------------------------------
       NWT REQUIRED            3 OUTER ITERATIONS 
       AND A TOTAL OF          5 INNER ITERATIONS.
    ------------------------------------------------

 NO OUTPUT CONTROL FOR STRESS PERIOD   19   TIME STEP   29
 
 SOLVING FOR HEAD 
                                                   Max.-Head-Change                         Max.-Flux-Residual
  Residual-Control   Outer-Iter.   Inner-Iter.     Column Row Layer    Maximum-Head-Change  Column Row Layer    Maximum-Flux-Residual          L2-NORM 
          0                 1           2             1    1     1       0.2585256009E-02       1    1    1         0.1341402207E+00      0.2547786803E+00
          0                 2           2             1    1     1      -0.2514750219E-03       1    1    1        -0.1341402937E-01      0.2547786691E-01
          0                 3           1             1    1     1       0.1712451564E-04       1    1    1         0.9389823988E-03      0.1783449568E-02

    ------------------------------------------------
       NWT REQUIRED            3 OUTER ITERATIONS 
       AND A TOTAL OF          5 INNER ITERATIONS.
    ------------------------------------------------

 NO OUTPUT CONTROL FOR STRESS PERIOD   19   TIME STEP   30



 STREAM LISTING     PERIOD     19   STEP       30

 LAYER ROW COL. STREAM  RCH.  FLOW INTO     FLOW TO   FLOW OUT OF   OVRLND.     DIRECT     STREAM       STREAM     STREAM     STREAM   STREAMBED  STREAMBED
                SEG.NO.  NO.  STRM. RCH.    AQUIFER    STRM. RCH.    RUNOFF     PRECIP       ET          HEAD       DEPTH      WIDTH   CONDCTNC.   GRADIENT

   1    1    1     1     1    4.0501E+01  3.0566E-01   4.0195E+01  0.000E+00  0.000E+00  0.000E+00  1.09438E+03  1.335E+00  1.567E+01  7.051E-02  1.445E+00
   1    2    2     1     2    4.0195E+01  4.7341E-01   3.9722E+01  0.000E+00  0.000E+00  0.000E+00  1.08939E+03  1.332E+00  1.561E+01  1.093E-01  1.444E+00
   1    3    3     1     3    3.9722E+01  4.0378E-01   3.9318E+01  0.000E+00  0.000E+00  0.000E+00  1.08375E+03  1.329E+00  1.555E+01  9.328E-02  1.443E+00
   1    3    4     1     4    3.9318E+01  3.7185E-01   3.8946E+01  0.000E+00  0.000E+00  0.000E+00  1.07873E+03  1.326E+00  1.549E+01  8.596E-02  1.442E+00
   1    4    5     2     1    3.6946E+01  3.5272E-01   3.6593E+01  0.000E+00  0.000E+00  0.000E+00  1.07346E+03  1.522E+00  1.200E+01  7.800E-02  1.507E+00
   1    5    6     2     2    3.6593E+01  2.7086E-01   3.6322E+01  0.000E+00  0.000E+00  0.000E+00  1.06802E+03  1.514E+00  1.200E+01  6.000E-02  1.505E+00
   1    6    6     2     3    3.6322E+01  2.7045E-01   3.6052E+01  0.000E+00  0.000E+00  0.000E+00  1.06330E+03  1.508E+00  1.200E+01  6.000E-02  1.503E+00
   1    7    6     2     4    3.6052E+01  2.7005E-01   3.5782E+01  0.000E+00  0.000E+00  0.000E+00  1.05858E+03  1.501E+00  1.200E+01  6.000E-02  1.500E+00
   1    8    6     2     5    3.5782E+01  2.6964E-01   3.5512E+01  0.000E+00  0.000E+00  0.000E+00  1.05385E+03  1.494E+00  1.200E+01  6.000E-02  1.498E+00
   1    3    5     3     1    2.0000E+00  2.8252E-01   1.7175E+00  0.000E+00  0.000E+00  0.000E+00  1.07555E+03  1.909E+00  9.636E+00  7.227E-02  1.955E+00
   1    3    6     3     2    1.7175E+00  2.4905E-01   1.4684E+00  0.000E+00  0.000E+00  0.000E+00  1.07264E+03  1.727E+00  8.909E+00  6.682E-02  1.864E+00
   1    3    7     3     3    1.4684E+00  1.9718E-01   1.2712E+00  0.000E+00  0.000E+00  0.000E+00  1.06987E+03  1.555E+00  8.218E+00  5.547E-02  1.777E+00
   1    4    8     3     4    1.2712E+00  2.2567E-01   1.0456E+00  0.000E+00  0.000E+00  0.000E+00  1.06682E+03  1.364E+00  7.455E+00  6.709E-02  1.682E+00
   1    5    8     3     5    1.0456E+00  1.5790E-01   8.8768E-01  0.000E+00  0.000E+00  0.000E+00  1.06362E+03  1.164E+00  6.655E+00  4.991E-02  1.582E+00
   1    6    8     3     6    8.8768E-01  5.5980E-02   8.3170E-01  0.000E+00  0.000E+00  0.000E+00  1.06158E+03  1.036E+00  6.145E+00  1.844E-02  1.518E+00
   1    5   10     4     1    1.0000E+01  9.0919E-02   9.9091E+00  0.000E+00  0.000E+00  0.000E+00  1.07836E+03  6.368E-01  1.000E+01  2.500E-02  1.212E+00
   1    5    9     4     2    9.9091E+00  1.8158E-01   9.7275E+00  0.000E+00  0.000E+00  0.000E+00  1.07154E+03  6.315E-01  1.000E+01  5.000E-02  1.211E+00
   1    6    8     4     3    9.7275E+00  1.2689E-01   9.6006E+00  0.000E+00  0.000E+00  0.000E+00  1.06381E+03  6.256E-01  1.000E+01  3.500E-02  1.209E+00
   1    6    8     5     1    1.0432E+01  2.2686E-01   1.0205E+01  0.000E+00  0.000E+00  0.000E+00  1.05868E+03  6.790E-01  1.542E+01  6.166E-02  1.226E+00
   1    7    7     5     2    1.0205E+01  2.7894E-01   9.9265E+00  0.000E+00  0.000E+00  0.000E+00  1.05417E+03  6.732E-01  1.519E+01  7.594E-02  1.224E+00
   1    8    7     5     3    9.9265E+00  1.9221E-01   9.7343E+00  0.000E+00  0.000E+00  0.000E+00  1.04992E+03  6.676E-01  1.497E+01  5.241E-02  1.223E+00
   1    8    6     5     4    9.7343E+00  1.3577E-01   9.5985E+00  0.000E+00  0.000E+00  0.000E+00  1.04691E+03  6.637E-01  1.482E+01  3.706E-02  1.221E+00
   1    9    6     6     1    9.5985E+00  2.2097E-01   9.3776E+00  0.000E+00  0.000E+00  0.000E+00  1.04341E+03  6.828E-01  1.200E+01  6.000E-02  1.228E+00
   1   10    7     6     2    9.3776E+00  2.2039E-01   9.1572E+00  0.000E+00  0.000E+00  0.000E+00  1.03885E+03  6.732E-01  1.200E+01  6.000E-02  1.224E+00
   1   11    7     6     3    9.1572E+00  2.1981E-01   8.9374E+00  0.000E+00  0.000E+00  0.000E+00  1.03430E+03  6.636E-01  1.200E+01  6.000E-02  1.221E+00
   1   12    7     6     4    8.9374E+00  2.1923E-01   8.7181E+00  0.000E+00  0.000E+00  0.000E+00  1.02974E+03  6.539E-01  1.200E+01  6.000E-02  1.218E+00
   1   13    7     6     5    8.7181E+00 -1.1124E-01   8.8294E+00  0.000E+00  0.000E+00  0.000E+00  1.02656E+03  6.515E-01  1.200E+01  2.400E-01 -1.545E-01
   1   14    9     7     1    1.5000E+02  1.3423E+00   1.4866E+02  0.000E+00  0.000E+00  0.000E+00  1.03987E+03  2.288E+00  5.529E+01  5.593E-01  8.000E-01
   1   13    8     7     2    1.4866E+02  1.8472E+00   1.4681E+02  0.000E+00  0.000E+00  0.000E+00  1.03478E+03  2.279E+00  5.526E+01  6.148E-01  1.002E+00
   1   13    7     7     3    1.4681E+02  1.4886E+00   1.4532E+02  0.000E+00  0.000E+00  0.000E+00  1.02969E+03  2.270E+00  5.522E+01  5.584E-01  8.885E-01
   1   13    6     8     1    1.5415E+02  8.4048E-01   1.5331E+02  0.000E+00  0.000E+00  0.000E+00  1.02472E+03  2.843E+00  4.122E+01  4.201E-01  6.669E-01
   1   13    5     8     2    1.5331E+02  1.1060E-01   1.5320E+02  0.000E+00  0.000E+00  0.000E+00  1.01846E+03  2.840E+00  4.117E+01  4.196E-01  8.786E-02
   1   13    4     8     3    1.5320E+02 -2.6449E+00   1.5585E+02  0.000E+00  0.000E+00  0.000E+00  1.01222E+03  2.848E+00  4.130E+01  4.209E+00 -2.095E-01
   1   13    3     8     4    1.5585E+02 -3.7321E+00   1.5958E+02  0.000E+00  0.000E+00  0.000E+00  1.00600E+03  2.870E+00  4.162E+01  4.241E+00 -2.933E-01
   1   13    2     8     5    1.5958E+02 -2.5954E+00   1.6217E+02  0.000E+00  0.000E+00  0.000E+00  9.99767E+02  2.892E+00  4.193E+01  4.273E+00 -2.025E-01
   1   13    1     8     6    1.6217E+02 -1.9799E+00   1.6415E+02  0.000E+00  0.000E+00  0.000E+00  9.94782E+02  2.907E+00  4.215E+01  2.577E+00 -2.561E-01
   1    8    6     9     1    3.5512E+01  0.0000E+00   3.5512E+01  0.000E+00  0.000E+00  0.000E+00  1.08360E+03  4.847E+00  4.000E+00  0.000E+00  2.616E+00
   1    8    5     9     2    3.5512E+01  0.0000E+00   3.5512E+01  0.000E+00  0.000E+00  0.000E+00  1.08310E+03  4.847E+00  4.000E+00  0.000E+00  2.616E+00





UNSATURATED ZONE PACKAGE VOLUMETRIC BUDGET FOR  TIME STEP    30 STRESS PERIOD   19
  ------------------------------------------------------------------------------



     CUMULATIVE VOLUMES      L**3       RATES FOR THIS TIME STEP      L**3/T
     ------------------                 ------------------------

           IN:                                      IN:
           ---                                      ---
        INFILTRATION =    40193871.7094          INFILTRATION =           0.8475

          OUT:                                     OUT:
          ----                                     ----
              UZF ET =    39448953.9387                UZF ET =           0.8475
        UZF RECHARGE =       73224.0000          UZF RECHARGE =       0.0000E+00

            IN - OUT =      671693.7707              IN - OUT =       0.0000E+00

          STORAGE:                                 STORAGE:
          --------                                 --------
      STORAGE CHANGE =      671693.9465        STORAGE CHANGE =       9.1295E-16

 PERCENT DISCREPANCY IS DIFFERENCE BETWEEN IN-OUT MINUS CHANGE IN STORAGE
 DIVIDED BY THE AVERAGE OF IN AND OUT TIMES 100

 PERCENT DISCREPANCY =           0.00     PERCENT DISCREPANCY =           0.00






1
  VOLUMETRIC BUDGET FOR ENTIRE MODEL AT END OF TIME STEP   30, STRESS PERIOD  19
  ------------------------------------------------------------------------------

     CUMULATIVE VOLUMES      L**3       RATES FOR THIS TIME STEP      L**3/T
     ------------------                 ------------------------

           IN:                                      IN:
           ---                                      ---
             STORAGE     =    20024814.0000               STORAGE     =           0.2202
       CONSTANT HEAD     =           0.0000         CONSTANT HEAD     =           0.0000
     HEAD DEP BOUNDS     =    13562336.0000       HEAD DEP BOUNDS     =           0.2862
      STREAM LEAKAGE     =   559520960.0000        STREAM LEAKAGE     =          11.8995
        UZF RECHARGE     =       73223.9531          UZF RECHARGE     =           0.0000
               GW ET     =           0.0000                 GW ET     =           0.0000
     SURFACE LEAKAGE     =           0.0000       SURFACE LEAKAGE     =           0.0000

                TOTAL IN =   593181312.0000                  TOTAL IN =          12.4058

          OUT:                                     OUT:
          ----                                     ----
             STORAGE     =    53618296.0000               STORAGE     =           1.0556
       CONSTANT HEAD     =           0.0000         CONSTANT HEAD     =           0.0000
     HEAD DEP BOUNDS     =    13608305.0000       HEAD DEP BOUNDS     =           0.2869
      STREAM LEAKAGE     =   525964032.0000        STREAM LEAKAGE     =          11.0635
        UZF RECHARGE     =           0.0000          UZF RECHARGE     =           0.0000
               GW ET     =           0.0000                 GW ET     =           0.0000
     SURFACE LEAKAGE     =           0.0000       SURFACE LEAKAGE     =           0.0000

               TOTAL OUT =   593190656.0000                 TOTAL OUT =          12.4061

                IN - OUT =       -9344.0000                  IN - OUT =      -2.3460E-04

     PERCENT DISCREPANCY =          -0.00         PERCENT DISCREPANCY =          -0.00






         TIME SUMMARY AT END OF TIME STEP   30 IN STRESS PERIOD   19
                    SECONDS     MINUTES      HOURS       DAYS        YEARS
                    -----------------------------------------------------------
   TIME STEP LENGTH  87667.      1461.1      24.352      1.0147     2.77799E-03
 STRESS PERIOD TIME 2.63000E+06  43833.      730.56      30.440     8.33397E-02
         TOTAL TIME 4.74265E+07 7.90442E+05  13174.      548.92      1.5029    
1
1
                            STRESS PERIOD NO.   20, LENGTH =   2630000.    
                            -----------------------------------------------

                              NUMBER OF TIME STEPS =    30

                               MULTIPLIER FOR DELT =     1.000

                            INITIAL TIME STEP SIZE =   87666.66    

 REUSING NON-PARAMETER GHB CELLS FROM LAST STRESS PERIOD

      2 GHB CELLS

 REUSING STREAM SEGMENT DATA FROM LAST STRESS PERIOD



            AREAL INFILTRATION RATE
 READING ON UNIT   19 WITH FORMAT: (FREE)              

            1           2           3           4           5           6           7           8           9          10
 ........................................................................................................................
   1   1.0000E-10  2.0000E-10   0.000       0.000       0.000       0.000       0.000       0.000       0.000       0.000    
   2   2.0000E-10  1.0000E-10  2.0000E-10   0.000       0.000      8.0000E-10  8.0000E-10  5.0000E-10   0.000       0.000    
   3    0.000      5.0000E-10  1.0000E-10  1.0000E-10  8.0000E-10  8.0000E-10  5.0000E-10  5.0000E-10   0.000       0.000    
   4   8.0000E-10  5.0000E-10  1.0000E-10  1.0000E-10  1.0000E-10  1.0000E-10  1.0000E-10  1.0000E-10  2.0000E-10   0.000    
   5   8.0000E-10  5.0000E-10  1.0000E-10  1.0000E-10  1.0000E-10  1.0000E-10  1.0000E-10  1.0000E-10  1.0000E-10  1.0000E-10
   6   8.0000E-10  5.0000E-10  5.0000E-10  2.0000E-10  2.0000E-10  1.0000E-10  1.0000E-10  1.0000E-10  1.0000E-10  5.0000E-10
   7   8.0000E-10  5.0000E-10  5.0000E-10  2.0000E-10  2.0000E-10  1.0000E-10  1.0000E-10  2.0000E-10  2.0000E-10   0.000    
   8    0.000      5.0000E-10  5.0000E-10  2.0000E-10  2.0000E-10  1.0000E-10  1.0000E-10  2.0000E-10  5.0000E-10   0.000    
   9    0.000      5.0000E-10  5.0000E-10  2.0000E-10  2.0000E-10  1.0000E-10  1.0000E-10  2.0000E-10  5.0000E-10   0.000    
  10    0.000      5.0000E-10  5.0000E-10  2.0000E-10  2.0000E-10  1.0000E-10  1.0000E-10  2.0000E-10  5.0000E-10  8.0000E-10
  11    0.000      1.0000E-10  1.0000E-10  1.0000E-10  1.0000E-10  1.0000E-10  1.0000E-10  2.0000E-10  5.0000E-10   0.000    
  12   1.0000E-10  1.0000E-10  1.0000E-10  1.0000E-10  1.0000E-10  1.0000E-10  1.0000E-10  1.0000E-10  2.0000E-10   0.000    
  13   1.0000E-10  1.0000E-10  2.0000E-10  2.0000E-10  2.0000E-10  2.0000E-10  2.0000E-10  1.0000E-10  1.0000E-10   0.000    
  14    0.000      2.0000E-10  5.0000E-10  5.0000E-10  5.0000E-10  5.0000E-10  5.0000E-10  2.0000E-10  1.0000E-10   0.000    
  15    0.000       0.000      8.0000E-10  8.0000E-10  8.0000E-10  8.0000E-10   0.000       0.000       0.000       0.000    

                  ET RATE =  4.000000E-07

 USING ET EXTINCTION DEPTH FROM PREVIOUS STRESS PERIOD. CURRENT PERIOD IS:      20

 USING EXTINCTION WATER CONTENT FROM PREVIOUS STRESS PERIOD. CURRENT PERIOD IS:      20

 USING AIR ENTRY PRESSURE FROM PREVIOUS STRESS PERIOD. CURRENT PERIOD IS:      20

 USING ROOT PRESSURE HEAD FROM PREVIOUS STRESS PERIOD. CURRENT PERIOD IS:      20

 USING ROOT ACTIVITY FROM PREVIOUS STRESS PERIOD. CURRENT PERIOD IS:      20
 
 SOLVING FOR HEAD 
                                                   Max.-Head-Change                         Max.-Flux-Residual
  Residual-Control   Outer-Iter.   Inner-Iter.     Column Row Layer    Maximum-Head-Change  Column Row Layer    Maximum-Flux-Residual          L2-NORM 
          0                 1           2             1    1     1       0.2583829257E-02       1    1    1         0.1340660476E+00      0.2545915963E+00
          0                 2           2             1    1     1      -0.2513362381E-03       1    1    1        -0.1340661206E-01      0.2545915410E-01
          0                 3           1             1    1     1       0.1711506528E-04       1    1    1         0.9384631850E-03      0.1782142184E-02

    ------------------------------------------------
       NWT REQUIRED            3 OUTER ITERATIONS 
       AND A TOTAL OF          5 INNER ITERATIONS.
    ------------------------------------------------

 OUTPUT CONTROL FOR STRESS PERIOD   20   TIME STEP    1
    PRINT BUDGET
    SAVE BUDGET
    SAVE BUDGET
    SAVE HEAD FOR ALL LAYERS
 UBDSV1 SAVING "         STORAGE" ON UNIT 102 AT TIME STEP 1, STRESS PERIOD 20
 UBDSV2 SAVING "   CONSTANT HEAD" ON UNIT 102 AT TIME STEP 1, STRESS PERIOD 20
 UBDSV1 SAVING "FLOW RIGHT FACE " ON UNIT 102 AT TIME STEP 1, STRESS PERIOD 20
 UBDSV1 SAVING "FLOW FRONT FACE " ON UNIT 102 AT TIME STEP 1, STRESS PERIOD 20

  HEAD DEP BOUNDS   PERIOD   20   STEP     1
 BOUNDARY      1   LAYER   1   ROW    13   COL     1   RATE   -0.286911    
 BOUNDARY      2   LAYER   1   ROW    14   COL     9   RATE    0.286202    



 STREAM LISTING     PERIOD     20   STEP        1

 LAYER ROW COL. STREAM  RCH.  FLOW INTO     FLOW TO   FLOW OUT OF   OVRLND.     DIRECT     STREAM       STREAM     STREAM     STREAM   STREAMBED  STREAMBED
                SEG.NO.  NO.  STRM. RCH.    AQUIFER    STRM. RCH.    RUNOFF     PRECIP       ET          HEAD       DEPTH      WIDTH   CONDCTNC.   GRADIENT

   1    1    1     1     1    4.0501E+01  3.0566E-01   4.0195E+01  0.000E+00  0.000E+00  0.000E+00  1.09438E+03  1.335E+00  1.567E+01  7.051E-02  1.445E+00
   1    2    2     1     2    4.0195E+01  4.7341E-01   3.9722E+01  0.000E+00  0.000E+00  0.000E+00  1.08939E+03  1.332E+00  1.561E+01  1.093E-01  1.444E+00
   1    3    3     1     3    3.9722E+01  4.0378E-01   3.9318E+01  0.000E+00  0.000E+00  0.000E+00  1.08375E+03  1.329E+00  1.555E+01  9.328E-02  1.443E+00
   1    3    4     1     4    3.9318E+01  3.7185E-01   3.8946E+01  0.000E+00  0.000E+00  0.000E+00  1.07873E+03  1.326E+00  1.549E+01  8.596E-02  1.442E+00
   1    4    5     2     1    3.6946E+01  3.5272E-01   3.6593E+01  0.000E+00  0.000E+00  0.000E+00  1.07346E+03  1.522E+00  1.200E+01  7.800E-02  1.507E+00
   1    5    6     2     2    3.6593E+01  2.7086E-01   3.6322E+01  0.000E+00  0.000E+00  0.000E+00  1.06802E+03  1.514E+00  1.200E+01  6.000E-02  1.505E+00
   1    6    6     2     3    3.6322E+01  2.7045E-01   3.6052E+01  0.000E+00  0.000E+00  0.000E+00  1.06330E+03  1.508E+00  1.200E+01  6.000E-02  1.503E+00
   1    7    6     2     4    3.6052E+01  2.7005E-01   3.5782E+01  0.000E+00  0.000E+00  0.000E+00  1.05858E+03  1.501E+00  1.200E+01  6.000E-02  1.500E+00
   1    8    6     2     5    3.5782E+01  2.6964E-01   3.5512E+01  0.000E+00  0.000E+00  0.000E+00  1.05385E+03  1.494E+00  1.200E+01  6.000E-02  1.498E+00
   1    3    5     3     1    2.0000E+00  2.8252E-01   1.7175E+00  0.000E+00  0.000E+00  0.000E+00  1.07555E+03  1.909E+00  9.636E+00  7.227E-02  1.955E+00
   1    3    6     3     2    1.7175E+00  2.4905E-01   1.4684E+00  0.000E+00  0.000E+00  0.000E+00  1.07264E+03  1.727E+00  8.909E+00  6.682E-02  1.864E+00
   1    3    7     3     3    1.4684E+00  1.9718E-01   1.2712E+00  0.000E+00  0.000E+00  0.000E+00  1.06987E+03  1.555E+00  8.218E+00  5.547E-02  1.777E+00
   1    4    8     3     4    1.2712E+00  2.2567E-01   1.0456E+00  0.000E+00  0.000E+00  0.000E+00  1.06682E+03  1.364E+00  7.455E+00  6.709E-02  1.682E+00
   1    5    8     3     5    1.0456E+00  1.5790E-01   8.8768E-01  0.000E+00  0.000E+00  0.000E+00  1.06362E+03  1.164E+00  6.655E+00  4.991E-02  1.582E+00
   1    6    8     3     6    8.8768E-01  5.5980E-02   8.3170E-01  0.000E+00  0.000E+00  0.000E+00  1.06158E+03  1.036E+00  6.145E+00  1.844E-02  1.518E+00
   1    5   10     4     1    1.0000E+01  9.0919E-02   9.9091E+00  0.000E+00  0.000E+00  0.000E+00  1.07836E+03  6.368E-01  1.000E+01  2.500E-02  1.212E+00
   1    5    9     4     2    9.9091E+00  1.8158E-01   9.7275E+00  0.000E+00  0.000E+00  0.000E+00  1.07154E+03  6.315E-01  1.000E+01  5.000E-02  1.211E+00
   1    6    8     4     3    9.7275E+00  1.2689E-01   9.6006E+00  0.000E+00  0.000E+00  0.000E+00  1.06381E+03  6.256E-01  1.000E+01  3.500E-02  1.209E+00
   1    6    8     5     1    1.0432E+01  2.2686E-01   1.0205E+01  0.000E+00  0.000E+00  0.000E+00  1.05868E+03  6.790E-01  1.542E+01  6.166E-02  1.226E+00
   1    7    7     5     2    1.0205E+01  2.7894E-01   9.9265E+00  0.000E+00  0.000E+00  0.000E+00  1.05417E+03  6.732E-01  1.519E+01  7.594E-02  1.224E+00
   1    8    7     5     3    9.9265E+00  1.9221E-01   9.7343E+00  0.000E+00  0.000E+00  0.000E+00  1.04992E+03  6.676E-01  1.497E+01  5.241E-02  1.223E+00
   1    8    6     5     4    9.7343E+00  1.3577E-01   9.5985E+00  0.000E+00  0.000E+00  0.000E+00  1.04691E+03  6.637E-01  1.482E+01  3.706E-02  1.221E+00
   1    9    6     6     1    9.5985E+00  2.2097E-01   9.3776E+00  0.000E+00  0.000E+00  0.000E+00  1.04341E+03  6.828E-01  1.200E+01  6.000E-02  1.228E+00
   1   10    7     6     2    9.3776E+00  2.2039E-01   9.1572E+00  0.000E+00  0.000E+00  0.000E+00  1.03885E+03  6.732E-01  1.200E+01  6.000E-02  1.224E+00
   1   11    7     6     3    9.1572E+00  2.1981E-01   8.9374E+00  0.000E+00  0.000E+00  0.000E+00  1.03430E+03  6.636E-01  1.200E+01  6.000E-02  1.221E+00
   1   12    7     6     4    8.9374E+00  2.1923E-01   8.7181E+00  0.000E+00  0.000E+00  0.000E+00  1.02974E+03  6.539E-01  1.200E+01  6.000E-02  1.218E+00
   1   13    7     6     5    8.7181E+00 -1.1123E-01   8.8294E+00  0.000E+00  0.000E+00  0.000E+00  1.02656E+03  6.515E-01  1.200E+01  2.400E-01 -1.545E-01
   1   14    9     7     1    1.5000E+02  1.3423E+00   1.4866E+02  0.000E+00  0.000E+00  0.000E+00  1.03987E+03  2.288E+00  5.529E+01  5.593E-01  8.000E-01
   1   13    8     7     2    1.4866E+02  1.8472E+00   1.4681E+02  0.000E+00  0.000E+00  0.000E+00  1.03478E+03  2.279E+00  5.526E+01  6.148E-01  1.002E+00
   1   13    7     7     3    1.4681E+02  1.4886E+00   1.4532E+02  0.000E+00  0.000E+00  0.000E+00  1.02969E+03  2.270E+00  5.522E+01  5.584E-01  8.885E-01
   1   13    6     8     1    1.5415E+02  8.4049E-01   1.5331E+02  0.000E+00  0.000E+00  0.000E+00  1.02472E+03  2.843E+00  4.122E+01  4.201E-01  6.669E-01
   1   13    5     8     2    1.5331E+02  1.1061E-01   1.5320E+02  0.000E+00  0.000E+00  0.000E+00  1.01846E+03  2.840E+00  4.117E+01  4.196E-01  8.787E-02
   1   13    4     8     3    1.5320E+02 -2.6449E+00   1.5585E+02  0.000E+00  0.000E+00  0.000E+00  1.01222E+03  2.848E+00  4.130E+01  4.209E+00 -2.095E-01
   1   13    3     8     4    1.5585E+02 -3.7320E+00   1.5958E+02  0.000E+00  0.000E+00  0.000E+00  1.00600E+03  2.870E+00  4.162E+01  4.241E+00 -2.933E-01
   1   13    2     8     5    1.5958E+02 -2.5954E+00   1.6217E+02  0.000E+00  0.000E+00  0.000E+00  9.99767E+02  2.892E+00  4.193E+01  4.273E+00 -2.025E-01
   1   13    1     8     6    1.6217E+02 -1.9799E+00   1.6415E+02  0.000E+00  0.000E+00  0.000E+00  9.94782E+02  2.907E+00  4.215E+01  2.577E+00 -2.561E-01
   1    8    6     9     1    3.5512E+01  0.0000E+00   3.5512E+01  0.000E+00  0.000E+00  0.000E+00  1.08360E+03  4.847E+00  4.000E+00  0.000E+00  2.616E+00
   1    8    5     9     2    3.5512E+01  0.0000E+00   3.5512E+01  0.000E+00  0.000E+00  0.000E+00  1.08310E+03  4.847E+00  4.000E+00  0.000E+00  2.616E+00



 UBDSV3 SAVING "           GW ET" ON UNIT  61 AT TIME STEP 1, STRESS PERIOD 20
 UBDSV3 SAVING "    UZF RECHARGE" ON UNIT  61 AT TIME STEP 1, STRESS PERIOD 20
 UBDSV3 SAVING " SURFACE LEAKAGE" ON UNIT  61 AT TIME STEP 1, STRESS PERIOD 20
 UBDSV3 SAVING "       HORT+DUNN" ON UNIT  61 AT TIME STEP 1, STRESS PERIOD 20
 UBDSV3 SAVING "  STORAGE CHANGE" ON UNIT  61 AT TIME STEP 1, STRESS PERIOD 20


UNSATURATED ZONE PACKAGE VOLUMETRIC BUDGET FOR  TIME STEP     1 STRESS PERIOD   20
  ------------------------------------------------------------------------------



     CUMULATIVE VOLUMES      L**3       RATES FOR THIS TIME STEP      L**3/T
     ------------------                 ------------------------

           IN:                                      IN:
           ---                                      ---
        INFILTRATION =    40268169.2051          INFILTRATION =           0.8475

          OUT:                                     OUT:
          ----                                     ----
              UZF ET =    39523251.4344                UZF ET =           0.8475
        UZF RECHARGE =       73224.0000          UZF RECHARGE =       0.0000E+00

            IN - OUT =      671693.7707              IN - OUT =       0.0000E+00

          STORAGE:                                 STORAGE:
          --------                                 --------
      STORAGE CHANGE =      671693.9465        STORAGE CHANGE =      -9.1295E-16

 PERCENT DISCREPANCY IS DIFFERENCE BETWEEN IN-OUT MINUS CHANGE IN STORAGE
 DIVIDED BY THE AVERAGE OF IN AND OUT TIMES 100

 PERCENT DISCREPANCY =           0.00     PERCENT DISCREPANCY =           0.00







 HEAD WILL BE SAVED ON UNIT   62 AT END OF TIME STEP    1, STRESS PERIOD   20
1
  VOLUMETRIC BUDGET FOR ENTIRE MODEL AT END OF TIME STEP    1, STRESS PERIOD  20
  ------------------------------------------------------------------------------

     CUMULATIVE VOLUMES      L**3       RATES FOR THIS TIME STEP      L**3/T
     ------------------                 ------------------------

           IN:                                      IN:
           ---                                      ---
             STORAGE     =    20044076.0000               STORAGE     =           0.2197
       CONSTANT HEAD     =           0.0000         CONSTANT HEAD     =           0.0000
     HEAD DEP BOUNDS     =    13587426.0000       HEAD DEP BOUNDS     =           0.2862
      STREAM LEAKAGE     =   560564160.0000        STREAM LEAKAGE     =          11.8995
        UZF RECHARGE     =       73223.9531          UZF RECHARGE     =           0.0000
               GW ET     =           0.0000                 GW ET     =           0.0000
     SURFACE LEAKAGE     =           0.0000       SURFACE LEAKAGE     =           0.0000

                TOTAL IN =   594268864.0000                  TOTAL IN =          12.4054

          OUT:                                     OUT:
          ----                                     ----
             STORAGE     =    53710808.0000               STORAGE     =           1.0553
       CONSTANT HEAD     =           0.0000         CONSTANT HEAD     =           0.0000
     HEAD DEP BOUNDS     =    13633458.0000       HEAD DEP BOUNDS     =           0.2869
      STREAM LEAKAGE     =   526933920.0000        STREAM LEAKAGE     =          11.0635
        UZF RECHARGE     =           0.0000          UZF RECHARGE     =           0.0000
               GW ET     =           0.0000                 GW ET     =           0.0000
     SURFACE LEAKAGE     =           0.0000       SURFACE LEAKAGE     =           0.0000

               TOTAL OUT =   594278208.0000                 TOTAL OUT =          12.4057

                IN - OUT =       -9344.0000                  IN - OUT =      -2.3556E-04

     PERCENT DISCREPANCY =          -0.00         PERCENT DISCREPANCY =          -0.00






         TIME SUMMARY AT END OF TIME STEP    1 IN STRESS PERIOD   20
                    SECONDS     MINUTES      HOURS       DAYS        YEARS
                    -----------------------------------------------------------
   TIME STEP LENGTH  87667.      1461.1      24.352      1.0147     2.77799E-03
 STRESS PERIOD TIME  87667.      1461.1      24.352      1.0147     2.77799E-03
         TOTAL TIME 4.75142E+07 7.91903E+05  13198.      549.93      1.5056    
1
 
 SOLVING FOR HEAD 
                                                   Max.-Head-Change                         Max.-Flux-Residual
  Residual-Control   Outer-Iter.   Inner-Iter.     Column Row Layer    Maximum-Head-Change  Column Row Layer    Maximum-Flux-Residual          L2-NORM 
          0                 1           2             1    1     1       0.2582428972E-02       1    1    1         0.1339932506E+00      0.2544110922E+00
          0                 2           2             1    1     1      -0.2512000275E-03       1    1    1        -0.1339933232E-01      0.2544110636E-01
          0                 3           1             1    1     1       0.1710578934E-04       1    1    1         0.9379535867E-03      0.1780876102E-02

    ------------------------------------------------
       NWT REQUIRED            3 OUTER ITERATIONS 
       AND A TOTAL OF          5 INNER ITERATIONS.
    ------------------------------------------------

 NO OUTPUT CONTROL FOR STRESS PERIOD   20   TIME STEP    2
 
 SOLVING FOR HEAD 
                                                   Max.-Head-Change                         Max.-Flux-Residual
  Residual-Control   Outer-Iter.   Inner-Iter.     Column Row Layer    Maximum-Head-Change  Column Row Layer    Maximum-Flux-Residual          L2-NORM 
          0                 1           2             1    1     1       0.2581009762E-02       1    1    1         0.1339194709E+00      0.2542293340E+00
          0                 2           2             1    1     1      -0.2510619768E-03       1    1    1        -0.1339195434E-01      0.2542292803E-01
          0                 3           1             1    1     1       0.1709638868E-04       1    1    1         0.9374371279E-03      0.1779604785E-02

    ------------------------------------------------
       NWT REQUIRED            3 OUTER ITERATIONS 
       AND A TOTAL OF          5 INNER ITERATIONS.
    ------------------------------------------------

 NO OUTPUT CONTROL FOR STRESS PERIOD   20   TIME STEP    3
 
 SOLVING FOR HEAD 
                                                   Max.-Head-Change                         Max.-Flux-Residual
  Residual-Control   Outer-Iter.   Inner-Iter.     Column Row Layer    Maximum-Head-Change  Column Row Layer    Maximum-Flux-Residual          L2-NORM 
          0                 1           2             1    1     1       0.2579594369E-02       1    1    1         0.1338458875E+00      0.2540547612E+00
          0                 2           2             1    1     1      -0.2509242978E-03       1    1    1        -0.1338459599E-01      0.2540547295E-01
          0                 3           1             1    1     1       0.1708701334E-04       1    1    1         0.9369220580E-03      0.1778387970E-02

    ------------------------------------------------
       NWT REQUIRED            3 OUTER ITERATIONS 
       AND A TOTAL OF          5 INNER ITERATIONS.
    ------------------------------------------------

 NO OUTPUT CONTROL FOR STRESS PERIOD   20   TIME STEP    4
 
 SOLVING FOR HEAD 
                                                   Max.-Head-Change                         Max.-Flux-Residual
  Residual-Control   Outer-Iter.   Inner-Iter.     Column Row Layer    Maximum-Head-Change  Column Row Layer    Maximum-Flux-Residual          L2-NORM 
          0                 1           2             1    1     1       0.2578182740E-02       1    1    1         0.1337725020E+00      0.2538815546E+00
          0                 2           2             1    1     1      -0.2507869843E-03       1    1    1        -0.1337725741E-01      0.2538815580E-01
          0                 3           1             1    1     1       0.1707766285E-04       1    1    1         0.9364083487E-03      0.1777171498E-02

    ------------------------------------------------
       NWT REQUIRED            3 OUTER ITERATIONS 
       AND A TOTAL OF          5 INNER ITERATIONS.
    ------------------------------------------------

 NO OUTPUT CONTROL FOR STRESS PERIOD   20   TIME STEP    5
 
 SOLVING FOR HEAD 
                                                   Max.-Head-Change                         Max.-Flux-Residual
  Residual-Control   Outer-Iter.   Inner-Iter.     Column Row Layer    Maximum-Head-Change  Column Row Layer    Maximum-Flux-Residual          L2-NORM 
          0                 1           2             1    1     1       0.2576797566E-02       1    1    1         0.1337004895E+00      0.2537100826E+00
          0                 2           2             1    1     1      -0.2506522443E-03       1    1    1        -0.1337005614E-01      0.2537100250E-01
          0                 3           1             1    1     1       0.1706848774E-04       1    1    1         0.9359042674E-03      0.1775969745E-02

    ------------------------------------------------
       NWT REQUIRED            3 OUTER ITERATIONS 
       AND A TOTAL OF          5 INNER ITERATIONS.
    ------------------------------------------------

 NO OUTPUT CONTROL FOR STRESS PERIOD   20   TIME STEP    6
 
 SOLVING FOR HEAD 
                                                   Max.-Head-Change                         Max.-Flux-Residual
  Residual-Control   Outer-Iter.   Inner-Iter.     Column Row Layer    Maximum-Head-Change  Column Row Layer    Maximum-Flux-Residual          L2-NORM 
          0                 1           2             1    1     1       0.2575393418E-02       1    1    1         0.1336274930E+00      0.2535477553E+00
          0                 2           2             1    1     1      -0.2505156585E-03       1    1    1        -0.1336275646E-01      0.2535604267E-01
          0                 3           1             1    1     1       0.1705918648E-04       1    1    1         0.9353932857E-03      0.1774919910E-02

    ------------------------------------------------
       NWT REQUIRED            3 OUTER ITERATIONS 
       AND A TOTAL OF          5 INNER ITERATIONS.
    ------------------------------------------------

 NO OUTPUT CONTROL FOR STRESS PERIOD   20   TIME STEP    7
 
 SOLVING FOR HEAD 
                                                   Max.-Head-Change                         Max.-Flux-Residual
  Residual-Control   Outer-Iter.   Inner-Iter.     Column Row Layer    Maximum-Head-Change  Column Row Layer    Maximum-Flux-Residual          L2-NORM 
          0                 1           2             1    1     1       0.2573993027E-02       1    1    1         0.1335546905E+00      0.2533835765E+00
          0                 2           2             1    1     1      -0.2503794388E-03       1    1    1        -0.1335547621E-01      0.2533835329E-01
          0                 3           1             1    1     1       0.1704991031E-04       1    1    1         0.9348836693E-03      0.1773686631E-02

    ------------------------------------------------
       NWT REQUIRED            3 OUTER ITERATIONS 
       AND A TOTAL OF          5 INNER ITERATIONS.
    ------------------------------------------------

 NO OUTPUT CONTROL FOR STRESS PERIOD   20   TIME STEP    8
 
 SOLVING FOR HEAD 
                                                   Max.-Head-Change                         Max.-Flux-Residual
  Residual-Control   Outer-Iter.   Inner-Iter.     Column Row Layer    Maximum-Head-Change  Column Row Layer    Maximum-Flux-Residual          L2-NORM 
          0                 1           2             1    1     1       0.2572596374E-02       1    1    1         0.1334820828E+00      0.2532184462E+00
          0                 2           2             1    1     1      -0.2502435819E-03       1    1    1        -0.1334821541E-01      0.2532184125E-01
          0                 3           1             1    1     1       0.1704065899E-04       1    1    1         0.9343754048E-03      0.1772529260E-02

    ------------------------------------------------
       NWT REQUIRED            3 OUTER ITERATIONS 
       AND A TOTAL OF          5 INNER ITERATIONS.
    ------------------------------------------------

 NO OUTPUT CONTROL FOR STRESS PERIOD   20   TIME STEP    9
 
 SOLVING FOR HEAD 
                                                   Max.-Head-Change                         Max.-Flux-Residual
  Residual-Control   Outer-Iter.   Inner-Iter.     Column Row Layer    Maximum-Head-Change  Column Row Layer    Maximum-Flux-Residual          L2-NORM 
          0                 1           2             1    1     1       0.2571203456E-02       1    1    1         0.1334096690E+00      0.2530602514E+00
          0                 2           2             1    1     1      -0.2501080889E-03       1    1    1        -0.1334097401E-01      0.2530602371E-01
          0                 3           1             1    1     1       0.1703143252E-04       1    1    1         0.9338685221E-03      0.1771425063E-02

    ------------------------------------------------
       NWT REQUIRED            3 OUTER ITERATIONS 
       AND A TOTAL OF          5 INNER ITERATIONS.
    ------------------------------------------------

 NO OUTPUT CONTROL FOR STRESS PERIOD   20   TIME STEP   10
 
 SOLVING FOR HEAD 
                                                   Max.-Head-Change                         Max.-Flux-Residual
  Residual-Control   Outer-Iter.   Inner-Iter.     Column Row Layer    Maximum-Head-Change  Column Row Layer    Maximum-Flux-Residual          L2-NORM 
          0                 1           2             1    1     1       0.2569814237E-02       1    1    1         0.1333374488E+00      0.2529004290E+00
          0                 2           2             1    1     1      -0.2499729555E-03       1    1    1        -0.1333375196E-01      0.2529003866E-01
          0                 3           1             1    1     1       0.1702223090E-04       1    1    1         0.9333629879E-03      0.1770302416E-02

    ------------------------------------------------
       NWT REQUIRED            3 OUTER ITERATIONS 
       AND A TOTAL OF          5 INNER ITERATIONS.
    ------------------------------------------------

 NO OUTPUT CONTROL FOR STRESS PERIOD   20   TIME STEP   11
 
 SOLVING FOR HEAD 
                                                   Max.-Head-Change                         Max.-Flux-Residual
  Residual-Control   Outer-Iter.   Inner-Iter.     Column Row Layer    Maximum-Head-Change  Column Row Layer    Maximum-Flux-Residual          L2-NORM 
          0                 1           2             1    1     1       0.2568451434E-02       1    1    1         0.1332665987E+00      0.2527452716E+00
          0                 2           2             1    1     1      -0.2498403915E-03       1    1    1        -0.1332666694E-01      0.2527452591E-01
          0                 3           1             1    1     1       0.1701320347E-04       1    1    1         0.9328670136E-03      0.1769219334E-02

    ------------------------------------------------
       NWT REQUIRED            3 OUTER ITERATIONS 
       AND A TOTAL OF          5 INNER ITERATIONS.
    ------------------------------------------------

 NO OUTPUT CONTROL FOR STRESS PERIOD   20   TIME STEP   12
 
 SOLVING FOR HEAD 
                                                   Max.-Head-Change                         Max.-Flux-Residual
  Residual-Control   Outer-Iter.   Inner-Iter.     Column Row Layer    Maximum-Head-Change  Column Row Layer    Maximum-Flux-Residual          L2-NORM 
          0                 1           2             1    1     1       0.2567069582E-02       1    1    1         0.1331947616E+00      0.2525915740E+00
          0                 2           2             1    1     1      -0.2497059743E-03       1    1    1        -0.1331948320E-01      0.2525916792E-01
          0                 3           1             1    1     1       0.1700404965E-04       1    1    1         0.9323641433E-03      0.1768161555E-02

    ------------------------------------------------
       NWT REQUIRED            3 OUTER ITERATIONS 
       AND A TOTAL OF          5 INNER ITERATIONS.
    ------------------------------------------------

 NO OUTPUT CONTROL FOR STRESS PERIOD   20   TIME STEP   13
 
 SOLVING FOR HEAD 
                                                   Max.-Head-Change                         Max.-Flux-Residual
  Residual-Control   Outer-Iter.   Inner-Iter.     Column Row Layer    Maximum-Head-Change  Column Row Layer    Maximum-Flux-Residual          L2-NORM 
          0                 1           2             1    1     1       0.2565691422E-02       1    1    1         0.1331231152E+00      0.2524381466E+00
          0                 2           2             1    1     1      -0.2495719170E-03       1    1    1        -0.1331231855E-01      0.2524381396E-01
          0                 3           1             1    1     1       0.1699492117E-04       1    1    1         0.9318626348E-03      0.1767080021E-02

    ------------------------------------------------
       NWT REQUIRED            3 OUTER ITERATIONS 
       AND A TOTAL OF          5 INNER ITERATIONS.
    ------------------------------------------------

 NO OUTPUT CONTROL FOR STRESS PERIOD   20   TIME STEP   14
 
 SOLVING FOR HEAD 
                                                   Max.-Head-Change                         Max.-Flux-Residual
  Residual-Control   Outer-Iter.   Inner-Iter.     Column Row Layer    Maximum-Head-Change  Column Row Layer    Maximum-Flux-Residual          L2-NORM 
          0                 1           2             1    1     1       0.2564316916E-02       1    1    1         0.1330516601E+00      0.2522842921E+00
          0                 2           2             1    1     1      -0.2494382144E-03       1    1    1        -0.1330517301E-01      0.2522842562E-01
          0                 3           1             1    1     1       0.1698581682E-04       1    1    1         0.9313624399E-03      0.1765989037E-02

    ------------------------------------------------
       NWT REQUIRED            3 OUTER ITERATIONS 
       AND A TOTAL OF          5 INNER ITERATIONS.
    ------------------------------------------------

 NO OUTPUT CONTROL FOR STRESS PERIOD   20   TIME STEP   15
 
 SOLVING FOR HEAD 
                                                   Max.-Head-Change                         Max.-Flux-Residual
  Residual-Control   Outer-Iter.   Inner-Iter.     Column Row Layer    Maximum-Head-Change  Column Row Layer    Maximum-Flux-Residual          L2-NORM 
          0                 1           2             1    1     1       0.2562946098E-02       1    1    1         0.1329803946E+00      0.2521356672E+00
          0                 2           2             1    1     1      -0.2493048714E-03       1    1    1        -0.1329804645E-01      0.2521356408E-01
          0                 3           1             1    1     1       0.1697673661E-04       1    1    1         0.9308635992E-03      0.1764950964E-02

    ------------------------------------------------
       NWT REQUIRED            3 OUTER ITERATIONS 
       AND A TOTAL OF          5 INNER ITERATIONS.
    ------------------------------------------------

 NO OUTPUT CONTROL FOR STRESS PERIOD   20   TIME STEP   16
 
 SOLVING FOR HEAD 
                                                   Max.-Head-Change                         Max.-Flux-Residual
  Residual-Control   Outer-Iter.   Inner-Iter.     Column Row Layer    Maximum-Head-Change  Column Row Layer    Maximum-Flux-Residual          L2-NORM 
          0                 1           2             1    1     1       0.2561578938E-02       1    1    1         0.1329093202E+00      0.2519856255E+00
          0                 2           2             1    1     1      -0.2491718836E-03       1    1    1        -0.1329093900E-01      0.2519856163E-01
          0                 3           1             1    1     1       0.1696768055E-04       1    1    1         0.9303660638E-03      0.1763900121E-02

    ------------------------------------------------
       NWT REQUIRED            3 OUTER ITERATIONS 
       AND A TOTAL OF          5 INNER ITERATIONS.
    ------------------------------------------------

 NO OUTPUT CONTROL FOR STRESS PERIOD   20   TIME STEP   17
 
 SOLVING FOR HEAD 
                                                   Max.-Head-Change                         Max.-Flux-Residual
  Residual-Control   Outer-Iter.   Inner-Iter.     Column Row Layer    Maximum-Head-Change  Column Row Layer    Maximum-Flux-Residual          L2-NORM 
          0                 1           2             1    1     1       0.2560215400E-02       1    1    1         0.1328384355E+00      0.2518362551E+00
          0                 2           2             1    1     1      -0.2490392485E-03       1    1    1        -0.1328385051E-01      0.2518362376E-01
          0                 3           1             1    1     1       0.1695864886E-04       1    1    1         0.9298698889E-03      0.1762853785E-02

    ------------------------------------------------
       NWT REQUIRED            3 OUTER ITERATIONS 
       AND A TOTAL OF          5 INNER ITERATIONS.
    ------------------------------------------------

 NO OUTPUT CONTROL FOR STRESS PERIOD   20   TIME STEP   18
 
 SOLVING FOR HEAD 
                                                   Max.-Head-Change                         Max.-Flux-Residual
  Residual-Control   Outer-Iter.   Inner-Iter.     Column Row Layer    Maximum-Head-Change  Column Row Layer    Maximum-Flux-Residual          L2-NORM 
          0                 1           2             1    1     1       0.2558855515E-02       1    1    1         0.1327677387E+00      0.2516915437E+00
          0                 2           2             1    1     1      -0.2489069682E-03       1    1    1        -0.1327678080E-01      0.2516915199E-01
          0                 3           1             1    1     1       0.1694964084E-04       1    1    1         0.9293749929E-03      0.1761841174E-02

    ------------------------------------------------
       NWT REQUIRED            3 OUTER ITERATIONS 
       AND A TOTAL OF          5 INNER ITERATIONS.
    ------------------------------------------------

 NO OUTPUT CONTROL FOR STRESS PERIOD   20   TIME STEP   19
 
 SOLVING FOR HEAD 
                                                   Max.-Head-Change                         Max.-Flux-Residual
  Residual-Control   Outer-Iter.   Inner-Iter.     Column Row Layer    Maximum-Head-Change  Column Row Layer    Maximum-Flux-Residual          L2-NORM 
          0                 1           2             1    1     1       0.2557499231E-02       1    1    1         0.1326972312E+00      0.2515436811E+00
          0                 2           2             1    1     1      -0.2487750384E-03       1    1    1        -0.1326973004E-01      0.2515436552E-01
          0                 3           1             1    1     1       0.1694065696E-04       1    1    1         0.9288814369E-03      0.1760805582E-02

    ------------------------------------------------
       NWT REQUIRED            3 OUTER ITERATIONS 
       AND A TOTAL OF          5 INNER ITERATIONS.
    ------------------------------------------------

 NO OUTPUT CONTROL FOR STRESS PERIOD   20   TIME STEP   20
 
 SOLVING FOR HEAD 
                                                   Max.-Head-Change                         Max.-Flux-Residual
  Residual-Control   Outer-Iter.   Inner-Iter.     Column Row Layer    Maximum-Head-Change  Column Row Layer    Maximum-Flux-Residual          L2-NORM 
          0                 1           2             1    1     1       0.2556146560E-02       1    1    1         0.1326269104E+00      0.2514007342E+00
          0                 2           2             1    1     1      -0.2486434600E-03       1    1    1        -0.1326269792E-01      0.2514006999E-01
          0                 3           1             1    1     1       0.1693169698E-04       1    1    1         0.9283891973E-03      0.1759804173E-02

    ------------------------------------------------
       NWT REQUIRED            3 OUTER ITERATIONS 
       AND A TOTAL OF          5 INNER ITERATIONS.
    ------------------------------------------------

 NO OUTPUT CONTROL FOR STRESS PERIOD   20   TIME STEP   21
 
 SOLVING FOR HEAD 
                                                   Max.-Head-Change                         Max.-Flux-Residual
  Residual-Control   Outer-Iter.   Inner-Iter.     Column Row Layer    Maximum-Head-Change  Column Row Layer    Maximum-Flux-Residual          L2-NORM 
          0                 1           2             1    1     1       0.2554797485E-02       1    1    1         0.1325567770E+00      0.2512516675E+00
          0                 2           2             1    1     1      -0.2485122316E-03       1    1    1        -0.1325568458E-01      0.2512516373E-01
          0                 3           1             1    1     1       0.1692276067E-04       1    1    1         0.9278982523E-03      0.1758760464E-02

    ------------------------------------------------
       NWT REQUIRED            3 OUTER ITERATIONS 
       AND A TOTAL OF          5 INNER ITERATIONS.
    ------------------------------------------------

 NO OUTPUT CONTROL FOR STRESS PERIOD   20   TIME STEP   22
 
 SOLVING FOR HEAD 
                                                   Max.-Head-Change                         Max.-Flux-Residual
  Residual-Control   Outer-Iter.   Inner-Iter.     Column Row Layer    Maximum-Head-Change  Column Row Layer    Maximum-Flux-Residual          L2-NORM 
          0                 1           2             1    1     1       0.2553474706E-02       1    1    1         0.1324880093E+00      0.2511148602E+00
          0                 2           2             1    1     1      -0.2483835610E-03       1    1    1        -0.1324880778E-01      0.2511148467E-01
          0                 3           1             1    1     1       0.1691399879E-04       1    1    1         0.9274168860E-03      0.1757802526E-02

    ------------------------------------------------
       NWT REQUIRED            3 OUTER ITERATIONS 
       AND A TOTAL OF          5 INNER ITERATIONS.
    ------------------------------------------------

 NO OUTPUT CONTROL FOR STRESS PERIOD   20   TIME STEP   23
 
 SOLVING FOR HEAD 
                                                   Max.-Head-Change                         Max.-Flux-Residual
  Residual-Control   Outer-Iter.   Inner-Iter.     Column Row Layer    Maximum-Head-Change  Column Row Layer    Maximum-Flux-Residual          L2-NORM 
          0                 1           2             1    1     1       0.2552132740E-02       1    1    1         0.1324182465E+00      0.2509674644E+00
          0                 2           2             1    1     1      -0.2482530241E-03       1    1    1        -0.1324183149E-01      0.2509674337E-01
          0                 3           1             1    1     1       0.1690510958E-04       1    1    1         0.9269285332E-03      0.1756772552E-02

    ------------------------------------------------
       NWT REQUIRED            3 OUTER ITERATIONS 
       AND A TOTAL OF          5 INNER ITERATIONS.
    ------------------------------------------------

 NO OUTPUT CONTROL FOR STRESS PERIOD   20   TIME STEP   24
 
 SOLVING FOR HEAD 
                                                   Max.-Head-Change                         Max.-Flux-Residual
  Residual-Control   Outer-Iter.   Inner-Iter.     Column Row Layer    Maximum-Head-Change  Column Row Layer    Maximum-Flux-Residual          L2-NORM 
          0                 1           2             1    1     1       0.2550794360E-02       1    1    1         0.1323486681E+00      0.2508291256E+00
          0                 2           2             1    1     1      -0.2481228360E-03       1    1    1        -0.1323487363E-01      0.2508291137E-01
          0                 3           1             1    1     1       0.1689624427E-04       1    1    1         0.9264414854E-03      0.1755805807E-02

    ------------------------------------------------
       NWT REQUIRED            3 OUTER ITERATIONS 
       AND A TOTAL OF          5 INNER ITERATIONS.
    ------------------------------------------------

 NO OUTPUT CONTROL FOR STRESS PERIOD   20   TIME STEP   25
 
 SOLVING FOR HEAD 
                                                   Max.-Head-Change                         Max.-Flux-Residual
  Residual-Control   Outer-Iter.   Inner-Iter.     Column Row Layer    Maximum-Head-Change  Column Row Layer    Maximum-Flux-Residual          L2-NORM 
          0                 1           2             1    1     1       0.2549459541E-02       1    1    1         0.1322792756E+00      0.2506899786E+00
          0                 2           2             1    1     1      -0.2479929942E-03       1    1    1        -0.1322793436E-01      0.2506899466E-01
          0                 3           1             1    1     1       0.1688740239E-04       1    1    1         0.9259557495E-03      0.1754828720E-02

    ------------------------------------------------
       NWT REQUIRED            3 OUTER ITERATIONS 
       AND A TOTAL OF          5 INNER ITERATIONS.
    ------------------------------------------------

 NO OUTPUT CONTROL FOR STRESS PERIOD   20   TIME STEP   26
 
 SOLVING FOR HEAD 
                                                   Max.-Head-Change                         Max.-Flux-Residual
  Residual-Control   Outer-Iter.   Inner-Iter.     Column Row Layer    Maximum-Head-Change  Column Row Layer    Maximum-Flux-Residual          L2-NORM 
          0                 1           2             1    1     1       0.2548128261E-02       1    1    1         0.1322100678E+00      0.2505479287E+00
          0                 2           2             1    1     1      -0.2478634961E-03       1    1    1        -0.1322101354E-01      0.2505479157E-01
          0                 3           1             1    1     1       0.1687858395E-04       1    1    1         0.9254712692E-03      0.1753839846E-02

    ------------------------------------------------
       NWT REQUIRED            3 OUTER ITERATIONS 
       AND A TOTAL OF          5 INNER ITERATIONS.
    ------------------------------------------------

 NO OUTPUT CONTROL FOR STRESS PERIOD   20   TIME STEP   27
 
 SOLVING FOR HEAD 
                                                   Max.-Head-Change                         Max.-Flux-Residual
  Residual-Control   Outer-Iter.   Inner-Iter.     Column Row Layer    Maximum-Head-Change  Column Row Layer    Maximum-Flux-Residual          L2-NORM 
          0                 1           2             1    1     1       0.2546800518E-02       1    1    1         0.1321410434E+00      0.2504101385E+00
          0                 2           2             1    1     1      -0.2477343430E-03       1    1    1        -0.1321411110E-01      0.2504100989E-01
          0                 3           1             1    1     1       0.1686978940E-04       1    1    1         0.9249881133E-03      0.1752869537E-02

    ------------------------------------------------
       NWT REQUIRED            3 OUTER ITERATIONS 
       AND A TOTAL OF          5 INNER ITERATIONS.
    ------------------------------------------------

 NO OUTPUT CONTROL FOR STRESS PERIOD   20   TIME STEP   28
 
 SOLVING FOR HEAD 
                                                   Max.-Head-Change                         Max.-Flux-Residual
  Residual-Control   Outer-Iter.   Inner-Iter.     Column Row Layer    Maximum-Head-Change  Column Row Layer    Maximum-Flux-Residual          L2-NORM 
          0                 1           2             1    1     1       0.2545476276E-02       1    1    1         0.1320722025E+00      0.2502714054E+00
          0                 2           2             1    1     1      -0.2476055301E-03       1    1    1        -0.1320722699E-01      0.2502713639E-01
          0                 3           1             1    1     1       0.1686101758E-04       1    1    1         0.9245062263E-03      0.1751897375E-02

    ------------------------------------------------
       NWT REQUIRED            3 OUTER ITERATIONS 
       AND A TOTAL OF          5 INNER ITERATIONS.
    ------------------------------------------------

 NO OUTPUT CONTROL FOR STRESS PERIOD   20   TIME STEP   29
 
 SOLVING FOR HEAD 
                                                   Max.-Head-Change                         Max.-Flux-Residual
  Residual-Control   Outer-Iter.   Inner-Iter.     Column Row Layer    Maximum-Head-Change  Column Row Layer    Maximum-Flux-Residual          L2-NORM 
          0                 1           2             1    1     1       0.1974930788E-02       1    1    1         0.1024353440E+00      0.2091676771E+00
          0                 2           2             1    1     1      -0.1921069389E-03       1    1    1        -0.1024353631E-01      0.2091676082E-01
          0                 3           1             1    1     1       0.1308177003E-04       1    1    1         0.7170478275E-03      0.1464173105E-02

    ------------------------------------------------
       NWT REQUIRED            3 OUTER ITERATIONS 
       AND A TOTAL OF          5 INNER ITERATIONS.
    ------------------------------------------------

 NO OUTPUT CONTROL FOR STRESS PERIOD   20   TIME STEP   30



 STREAM LISTING     PERIOD     20   STEP       30

 LAYER ROW COL. STREAM  RCH.  FLOW INTO     FLOW TO   FLOW OUT OF   OVRLND.     DIRECT     STREAM       STREAM     STREAM     STREAM   STREAMBED  STREAMBED
                SEG.NO.  NO.  STRM. RCH.    AQUIFER    STRM. RCH.    RUNOFF     PRECIP       ET          HEAD       DEPTH      WIDTH   CONDCTNC.   GRADIENT

   1    1    1     1     1    3.2276E+01  2.7609E-01   3.2000E+01  0.000E+00  0.000E+00  0.000E+00  1.09432E+03  1.269E+00  1.437E+01  6.467E-02  1.423E+00
   1    2    2     1     2    3.2000E+01  4.2738E-01   3.1573E+01  0.000E+00  0.000E+00  0.000E+00  1.08932E+03  1.266E+00  1.431E+01  1.002E-01  1.422E+00
   1    3    3     1     3    3.1573E+01  3.6428E-01   3.1209E+01  0.000E+00  0.000E+00  0.000E+00  1.08368E+03  1.263E+00  1.424E+01  8.546E-02  1.421E+00
   1    3    4     1     4    3.1209E+01  3.3528E-01   3.0873E+01  0.000E+00  0.000E+00  0.000E+00  1.07867E+03  1.259E+00  1.418E+01  7.871E-02  1.420E+00
   1    4    5     2     1    2.8873E+01  3.3633E-01   2.8537E+01  0.000E+00  0.000E+00  0.000E+00  1.07325E+03  1.312E+00  1.200E+01  7.800E-02  1.437E+00
   1    5    6     2     2    2.8537E+01  2.5823E-01   2.8279E+01  0.000E+00  0.000E+00  0.000E+00  1.06781E+03  1.304E+00  1.200E+01  6.000E-02  1.435E+00
   1    6    6     2     3    2.8279E+01  2.5780E-01   2.8021E+01  0.000E+00  0.000E+00  0.000E+00  1.06309E+03  1.297E+00  1.200E+01  6.000E-02  1.432E+00
   1    7    6     2     4    2.8021E+01  2.5737E-01   2.7764E+01  0.000E+00  0.000E+00  0.000E+00  1.05836E+03  1.290E+00  1.200E+01  6.000E-02  1.430E+00
   1    8    6     2     5    2.7764E+01  2.5694E-01   2.7507E+01  0.000E+00  0.000E+00  0.000E+00  1.05364E+03  1.282E+00  1.200E+01  6.000E-02  1.427E+00
   1    3    5     3     1    2.0000E+00  2.8252E-01   1.7175E+00  0.000E+00  0.000E+00  0.000E+00  1.07555E+03  1.909E+00  9.636E+00  7.227E-02  1.955E+00
   1    3    6     3     2    1.7175E+00  2.4905E-01   1.4684E+00  0.000E+00  0.000E+00  0.000E+00  1.07264E+03  1.727E+00  8.909E+00  6.682E-02  1.864E+00
   1    3    7     3     3    1.4684E+00  1.9718E-01   1.2712E+00  0.000E+00  0.000E+00  0.000E+00  1.06987E+03  1.555E+00  8.218E+00  5.547E-02  1.777E+00
   1    4    8     3     4    1.2712E+00  2.2567E-01   1.0456E+00  0.000E+00  0.000E+00  0.000E+00  1.06682E+03  1.364E+00  7.455E+00  6.709E-02  1.682E+00
   1    5    8     3     5    1.0456E+00  1.5790E-01   8.8768E-01  0.000E+00  0.000E+00  0.000E+00  1.06362E+03  1.164E+00  6.655E+00  4.991E-02  1.582E+00
   1    6    8     3     6    8.8768E-01  5.5980E-02   8.3170E-01  0.000E+00  0.000E+00  0.000E+00  1.06158E+03  1.036E+00  6.145E+00  1.844E-02  1.518E+00
   1    5   10     4     1    1.0000E+01  9.0919E-02   9.9091E+00  0.000E+00  0.000E+00  0.000E+00  1.07836E+03  6.368E-01  1.000E+01  2.500E-02  1.212E+00
   1    5    9     4     2    9.9091E+00  1.8158E-01   9.7275E+00  0.000E+00  0.000E+00  0.000E+00  1.07154E+03  6.315E-01  1.000E+01  5.000E-02  1.211E+00
   1    6    8     4     3    9.7275E+00  1.2689E-01   9.6006E+00  0.000E+00  0.000E+00  0.000E+00  1.06381E+03  6.256E-01  1.000E+01  3.500E-02  1.209E+00
   1    6    8     5     1    1.0432E+01  2.2686E-01   1.0205E+01  0.000E+00  0.000E+00  0.000E+00  1.05868E+03  6.790E-01  1.542E+01  6.166E-02  1.226E+00
   1    7    7     5     2    1.0205E+01  2.7894E-01   9.9265E+00  0.000E+00  0.000E+00  0.000E+00  1.05417E+03  6.732E-01  1.519E+01  7.594E-02  1.224E+00
   1    8    7     5     3    9.9265E+00  1.9221E-01   9.7343E+00  0.000E+00  0.000E+00  0.000E+00  1.04992E+03  6.676E-01  1.497E+01  5.241E-02  1.223E+00
   1    8    6     5     4    9.7343E+00  1.3577E-01   9.5985E+00  0.000E+00  0.000E+00  0.000E+00  1.04691E+03  6.637E-01  1.482E+01  3.706E-02  1.221E+00
   1    9    6     6     1    9.5985E+00  2.2097E-01   9.3776E+00  0.000E+00  0.000E+00  0.000E+00  1.04341E+03  6.828E-01  1.200E+01  6.000E-02  1.228E+00
   1   10    7     6     2    9.3776E+00  2.2039E-01   9.1572E+00  0.000E+00  0.000E+00  0.000E+00  1.03885E+03  6.732E-01  1.200E+01  6.000E-02  1.224E+00
   1   11    7     6     3    9.1572E+00  2.1981E-01   8.9374E+00  0.000E+00  0.000E+00  0.000E+00  1.03430E+03  6.636E-01  1.200E+01  6.000E-02  1.221E+00
   1   12    7     6     4    8.9374E+00  2.1923E-01   8.7181E+00  0.000E+00  0.000E+00  0.000E+00  1.02974E+03  6.539E-01  1.200E+01  6.000E-02  1.218E+00
   1   13    7     6     5    8.7181E+00 -1.1112E-01   8.8293E+00  0.000E+00  0.000E+00  0.000E+00  1.02656E+03  6.514E-01  1.200E+01  2.400E-01 -1.543E-01
   1   14    9     7     1    1.5000E+02  1.3426E+00   1.4866E+02  0.000E+00  0.000E+00  0.000E+00  1.03987E+03  2.288E+00  5.529E+01  5.593E-01  8.002E-01
   1   13    8     7     2    1.4866E+02  1.8475E+00   1.4681E+02  0.000E+00  0.000E+00  0.000E+00  1.03478E+03  2.279E+00  5.526E+01  6.148E-01  1.002E+00
   1   13    7     7     3    1.4681E+02  1.4889E+00   1.4532E+02  0.000E+00  0.000E+00  0.000E+00  1.02969E+03  2.270E+00  5.522E+01  5.584E-01  8.887E-01
   1   13    6     8     1    1.5415E+02  8.4076E-01   1.5331E+02  0.000E+00  0.000E+00  0.000E+00  1.02472E+03  2.843E+00  4.122E+01  4.201E-01  6.672E-01
   1   13    5     8     2    1.5331E+02  1.1083E-01   1.5320E+02  0.000E+00  0.000E+00  0.000E+00  1.01846E+03  2.840E+00  4.117E+01  4.196E-01  8.805E-02
   1   13    4     8     3    1.5320E+02 -2.6442E+00   1.5584E+02  0.000E+00  0.000E+00  0.000E+00  1.01222E+03  2.848E+00  4.130E+01  4.209E+00 -2.094E-01
   1   13    3     8     4    1.5584E+02 -3.7315E+00   1.5957E+02  0.000E+00  0.000E+00  0.000E+00  1.00600E+03  2.870E+00  4.162E+01  4.241E+00 -2.933E-01
   1   13    2     8     5    1.5957E+02 -2.5952E+00   1.6217E+02  0.000E+00  0.000E+00  0.000E+00  9.99767E+02  2.892E+00  4.193E+01  4.273E+00 -2.025E-01
   1   13    1     8     6    1.6217E+02 -1.9798E+00   1.6415E+02  0.000E+00  0.000E+00  0.000E+00  9.94782E+02  2.907E+00  4.215E+01  2.577E+00 -2.561E-01
   1    8    6     9     1    2.7507E+01  0.0000E+00   2.7507E+01  0.000E+00  0.000E+00  0.000E+00  1.08291E+03  4.158E+00  4.000E+00  0.000E+00  2.386E+00
   1    8    5     9     2    2.7507E+01  0.0000E+00   2.7507E+01  0.000E+00  0.000E+00  0.000E+00  1.08241E+03  4.158E+00  4.000E+00  0.000E+00  2.386E+00





UNSATURATED ZONE PACKAGE VOLUMETRIC BUDGET FOR  TIME STEP    30 STRESS PERIOD   20
  ------------------------------------------------------------------------------



     CUMULATIVE VOLUMES      L**3       RATES FOR THIS TIME STEP      L**3/T
     ------------------                 ------------------------

           IN:                                      IN:
           ---                                      ---
        INFILTRATION =    42422796.5821          INFILTRATION =           0.8475

          OUT:                                     OUT:
          ----                                     ----
              UZF ET =    41677878.8114                UZF ET =           0.8475
        UZF RECHARGE =       73224.0000          UZF RECHARGE =       0.0000E+00

            IN - OUT =      671693.7707              IN - OUT =       0.0000E+00

          STORAGE:                                 STORAGE:
          --------                                 --------
      STORAGE CHANGE =      671693.9465        STORAGE CHANGE =       0.0000E+00

 PERCENT DISCREPANCY IS DIFFERENCE BETWEEN IN-OUT MINUS CHANGE IN STORAGE
 DIVIDED BY THE AVERAGE OF IN AND OUT TIMES 100

 PERCENT DISCREPANCY =           0.00     PERCENT DISCREPANCY =           0.00






1
  VOLUMETRIC BUDGET FOR ENTIRE MODEL AT END OF TIME STEP   30, STRESS PERIOD  20
  ------------------------------------------------------------------------------

     CUMULATIVE VOLUMES      L**3       RATES FOR THIS TIME STEP      L**3/T
     ------------------                 ------------------------

           IN:                                      IN:
           ---                                      ---
             STORAGE     =    20586634.0000               STORAGE     =           0.2193
       CONSTANT HEAD     =           0.0000         CONSTANT HEAD     =           0.0000
     HEAD DEP BOUNDS     =    14315071.0000       HEAD DEP BOUNDS     =           0.2862
      STREAM LEAKAGE     =   590799104.0000        STREAM LEAKAGE     =          11.6821
        UZF RECHARGE     =       73223.9531          UZF RECHARGE     =           0.0000
               GW ET     =           0.0000                 GW ET     =           0.0000
     SURFACE LEAKAGE     =           0.0000       SURFACE LEAKAGE     =           0.0000

                TOTAL IN =   625774016.0000                  TOTAL IN =          12.1876

          OUT:                                     OUT:
          ----                                     ----
             STORAGE     =    56362480.0000               STORAGE     =           0.8391
       CONSTANT HEAD     =           0.0000         CONSTANT HEAD     =           0.0000
     HEAD DEP BOUNDS     =    14362876.0000       HEAD DEP BOUNDS     =           0.2869
      STREAM LEAKAGE     =   555058624.0000        STREAM LEAKAGE     =          11.0618
        UZF RECHARGE     =           0.0000          UZF RECHARGE     =           0.0000
               GW ET     =           0.0000                 GW ET     =           0.0000
     SURFACE LEAKAGE     =           0.0000       SURFACE LEAKAGE     =           0.0000

               TOTAL OUT =   625784000.0000                 TOTAL OUT =          12.1878

                IN - OUT =       -9984.0000                  IN - OUT =      -1.7357E-04

     PERCENT DISCREPANCY =          -0.00         PERCENT DISCREPANCY =          -0.00






         TIME SUMMARY AT END OF TIME STEP   30 IN STRESS PERIOD   20
                    SECONDS     MINUTES      HOURS       DAYS        YEARS
                    -----------------------------------------------------------
   TIME STEP LENGTH  87667.      1461.1      24.352      1.0147     2.77799E-03
 STRESS PERIOD TIME 2.63000E+06  43833.      730.56      30.440     8.33397E-02
         TOTAL TIME 5.00565E+07 8.34276E+05  13905.      579.36      1.5862    
1
1
                            STRESS PERIOD NO.   21, LENGTH =   2630000.    
                            -----------------------------------------------

                              NUMBER OF TIME STEPS =    30

                               MULTIPLIER FOR DELT =     1.000

                            INITIAL TIME STEP SIZE =   87666.66    

 REUSING NON-PARAMETER GHB CELLS FROM LAST STRESS PERIOD

      2 GHB CELLS

 REUSING STREAM SEGMENT DATA FROM LAST STRESS PERIOD



            AREAL INFILTRATION RATE
 READING ON UNIT   19 WITH FORMAT: (FREE)              

            1           2           3           4           5           6           7           8           9          10
 ........................................................................................................................
   1   1.0000E-10  2.0000E-10   0.000       0.000       0.000       0.000       0.000       0.000       0.000       0.000    
   2   2.0000E-10  1.0000E-10  2.0000E-10   0.000       0.000      8.0000E-10  8.0000E-10  5.0000E-10   0.000       0.000    
   3    0.000      5.0000E-10  1.0000E-10  1.0000E-10  8.0000E-10  8.0000E-10  5.0000E-10  5.0000E-10   0.000       0.000    
   4   8.0000E-10  5.0000E-10  1.0000E-10  1.0000E-10  1.0000E-10  1.0000E-10  1.0000E-10  1.0000E-10  2.0000E-10   0.000    
   5   8.0000E-10  5.0000E-10  1.0000E-10  1.0000E-10  1.0000E-10  1.0000E-10  1.0000E-10  1.0000E-10  1.0000E-10  1.0000E-10
   6   8.0000E-10  5.0000E-10  5.0000E-10  2.0000E-10  2.0000E-10  1.0000E-10  1.0000E-10  1.0000E-10  1.0000E-10  5.0000E-10
   7   8.0000E-10  5.0000E-10  5.0000E-10  2.0000E-10  2.0000E-10  1.0000E-10  1.0000E-10  2.0000E-10  2.0000E-10   0.000    
   8    0.000      5.0000E-10  5.0000E-10  2.0000E-10  2.0000E-10  1.0000E-10  1.0000E-10  2.0000E-10  5.0000E-10   0.000    
   9    0.000      5.0000E-10  5.0000E-10  2.0000E-10  2.0000E-10  1.0000E-10  1.0000E-10  2.0000E-10  5.0000E-10   0.000    
  10    0.000      5.0000E-10  5.0000E-10  2.0000E-10  2.0000E-10  1.0000E-10  1.0000E-10  2.0000E-10  5.0000E-10  8.0000E-10
  11    0.000      1.0000E-10  1.0000E-10  1.0000E-10  1.0000E-10  1.0000E-10  1.0000E-10  2.0000E-10  5.0000E-10   0.000    
  12   1.0000E-10  1.0000E-10  1.0000E-10  1.0000E-10  1.0000E-10  1.0000E-10  1.0000E-10  1.0000E-10  2.0000E-10   0.000    
  13   1.0000E-10  1.0000E-10  2.0000E-10  2.0000E-10  2.0000E-10  2.0000E-10  2.0000E-10  1.0000E-10  1.0000E-10   0.000    
  14    0.000      2.0000E-10  5.0000E-10  5.0000E-10  5.0000E-10  5.0000E-10  5.0000E-10  2.0000E-10  1.0000E-10   0.000    
  15    0.000       0.000      8.0000E-10  8.0000E-10  8.0000E-10  8.0000E-10   0.000       0.000       0.000       0.000    

                  ET RATE =  3.250000E-07

 USING ET EXTINCTION DEPTH FROM PREVIOUS STRESS PERIOD. CURRENT PERIOD IS:      21

 USING EXTINCTION WATER CONTENT FROM PREVIOUS STRESS PERIOD. CURRENT PERIOD IS:      21

 USING AIR ENTRY PRESSURE FROM PREVIOUS STRESS PERIOD. CURRENT PERIOD IS:      21

 USING ROOT PRESSURE HEAD FROM PREVIOUS STRESS PERIOD. CURRENT PERIOD IS:      21

 USING ROOT ACTIVITY FROM PREVIOUS STRESS PERIOD. CURRENT PERIOD IS:      21
 
 SOLVING FOR HEAD 
                                                   Max.-Head-Change                         Max.-Flux-Residual
  Residual-Control   Outer-Iter.   Inner-Iter.     Column Row Layer    Maximum-Head-Change  Column Row Layer    Maximum-Flux-Residual          L2-NORM 
          0                 1           2             2    1     1       0.1957395387E-02       2    1    1         0.1016146776E+00      0.1962679662E+00
          0                 2           2             2    1     1      -0.1904013239E-03       2    1    1        -0.1016147630E-01      0.1962679770E-01
          0                 3           1             2    1     1       0.1296562285E-04       2    1    1         0.7113035657E-03      0.1373875606E-02

    ------------------------------------------------
       NWT REQUIRED            3 OUTER ITERATIONS 
       AND A TOTAL OF          5 INNER ITERATIONS.
    ------------------------------------------------

 NO OUTPUT CONTROL FOR STRESS PERIOD   21   TIME STEP    1
 
 SOLVING FOR HEAD 
                                                   Max.-Head-Change                         Max.-Flux-Residual
  Residual-Control   Outer-Iter.   Inner-Iter.     Column Row Layer    Maximum-Head-Change  Column Row Layer    Maximum-Flux-Residual          L2-NORM 
          0                 1           2             2    1     1       0.1955299636E-02       2    1    1         0.1015051330E+00      0.1950458289E+00
          0                 2           2             2    1     1      -0.1901974633E-03       2    1    1        -0.1015052178E-01      0.1950458415E-01
          0                 3           1             2    1     1       0.1295174078E-04       2    1    1         0.7105367447E-03      0.1365318177E-02

    ------------------------------------------------
       NWT REQUIRED            3 OUTER ITERATIONS 
       AND A TOTAL OF          5 INNER ITERATIONS.
    ------------------------------------------------

 NO OUTPUT CONTROL FOR STRESS PERIOD   21   TIME STEP    2
 
 SOLVING FOR HEAD 
                                                   Max.-Head-Change                         Max.-Flux-Residual
  Residual-Control   Outer-Iter.   Inner-Iter.     Column Row Layer    Maximum-Head-Change  Column Row Layer    Maximum-Flux-Residual          L2-NORM 
          0                 1           2             2    1     1       0.1953242103E-02       2    1    1         0.1013975853E+00      0.1938947295E+00
          0                 2           2             2    1     1      -0.1899973204E-03       2    1    1        -0.1013976693E-01      0.1938947385E-01
          0                 3           1             2    1     1       0.1293811172E-04       2    1    1         0.7097839056E-03      0.1357268801E-02

    ------------------------------------------------
       NWT REQUIRED            3 OUTER ITERATIONS 
       AND A TOTAL OF          5 INNER ITERATIONS.
    ------------------------------------------------

 NO OUTPUT CONTROL FOR STRESS PERIOD   21   TIME STEP    3
 
 SOLVING FOR HEAD 
                                                   Max.-Head-Change                         Max.-Flux-Residual
  Residual-Control   Outer-Iter.   Inner-Iter.     Column Row Layer    Maximum-Head-Change  Column Row Layer    Maximum-Flux-Residual          L2-NORM 
          0                 1           2             2    1     1       0.1951179619E-02       2    1    1         0.1012897905E+00      0.1928101595E+00
          0                 2           2             2    1     1      -0.1897966958E-03       2    1    1        -0.1012898739E-01      0.1928101694E-01
          0                 3           1             2    1     1       0.1292444999E-04       2    1    1         0.7090293351E-03      0.1349671117E-02

    ------------------------------------------------
       NWT REQUIRED            3 OUTER ITERATIONS 
       AND A TOTAL OF          5 INNER ITERATIONS.
    ------------------------------------------------

 NO OUTPUT CONTROL FOR STRESS PERIOD   21   TIME STEP    4
 
 SOLVING FOR HEAD 
                                                   Max.-Head-Change                         Max.-Flux-Residual
  Residual-Control   Outer-Iter.   Inner-Iter.     Column Row Layer    Maximum-Head-Change  Column Row Layer    Maximum-Flux-Residual          L2-NORM 
          0                 1           2             2    1     1       0.1949154881E-02       2    1    1         0.1011839677E+00      0.1917881050E+00
          0                 2           2             2    1     1      -0.1895997434E-03       2    1    1        -0.1011840505E-01      0.1917880928E-01
          0                 3           1             2    1     1       0.1291103842E-04       2    1    1         0.7082885792E-03      0.1342515528E-02

    ------------------------------------------------
       NWT REQUIRED            3 OUTER ITERATIONS 
       AND A TOTAL OF          5 INNER ITERATIONS.
    ------------------------------------------------

 NO OUTPUT CONTROL FOR STRESS PERIOD   21   TIME STEP    5
 
 SOLVING FOR HEAD 
                                                   Max.-Head-Change                         Max.-Flux-Residual
  Residual-Control   Outer-Iter.   Inner-Iter.     Column Row Layer    Maximum-Head-Change  Column Row Layer    Maximum-Flux-Residual          L2-NORM 
          0                 1           2             2    1     1       0.1947124723E-02       2    1    1         0.1010778732E+00      0.1908177245E+00
          0                 2           2             2    1     1      -0.1894022636E-03       2    1    1        -0.1010779554E-01      0.1908177309E-01
          0                 3           1             2    1     1       0.1289759112E-04       2    1    1         0.7075459279E-03      0.1335723208E-02

    ------------------------------------------------
       NWT REQUIRED            3 OUTER ITERATIONS 
       AND A TOTAL OF          5 INNER ITERATIONS.
    ------------------------------------------------

 NO OUTPUT CONTROL FOR STRESS PERIOD   21   TIME STEP    6
 
 SOLVING FOR HEAD 
                                                   Max.-Head-Change                         Max.-Flux-Residual
  Residual-Control   Outer-Iter.   Inner-Iter.     Column Row Layer    Maximum-Head-Change  Column Row Layer    Maximum-Flux-Residual          L2-NORM 
          0                 1           2             2    1     1       0.1945131855E-02       2    1    1         0.1009737267E+00      0.1899027388E+00
          0                 2           2             2    1     1      -0.1892084110E-03       2    1    1        -0.1009738082E-01      0.1899027312E-01
          0                 3           1             2    1     1       0.1288439043E-04       2    1    1         0.7068169013E-03      0.1329321992E-02

    ------------------------------------------------
       NWT REQUIRED            3 OUTER ITERATIONS 
       AND A TOTAL OF          5 INNER ITERATIONS.
    ------------------------------------------------

 NO OUTPUT CONTROL FOR STRESS PERIOD   21   TIME STEP    7
 
 SOLVING FOR HEAD 
                                                   Max.-Head-Change                         Max.-Flux-Residual
  Residual-Control   Outer-Iter.   Inner-Iter.     Column Row Layer    Maximum-Head-Change  Column Row Layer    Maximum-Flux-Residual          L2-NORM 
          0                 1           2             2    1     1       0.1943133142E-02       2    1    1         0.1008692845E+00      0.1890321169E+00
          0                 2           2             2    1     1      -0.1890139893E-03       2    1    1        -0.1008693653E-01      0.1890321919E-01
          0                 3           1             2    1     1       0.1287115069E-04       2    1    1         0.7060857795E-03      0.1323227214E-02

    ------------------------------------------------
       NWT REQUIRED            3 OUTER ITERATIONS 
       AND A TOTAL OF          5 INNER ITERATIONS.
    ------------------------------------------------

 NO OUTPUT CONTROL FOR STRESS PERIOD   21   TIME STEP    8
 
 SOLVING FOR HEAD 
                                                   Max.-Head-Change                         Max.-Flux-Residual
  Residual-Control   Outer-Iter.   Inner-Iter.     Column Row Layer    Maximum-Head-Change  Column Row Layer    Maximum-Flux-Residual          L2-NORM 
          0                 1           2             2    1     1       0.1941171276E-02       2    1    1         0.1007667684E+00      0.1882055443E+00
          0                 2           2             2    1     1      -0.1888231525E-03       2    1    1        -0.1007668486E-01      0.1882054778E-01
          0                 3           1             2    1     1       0.1285815591E-04       2    1    1         0.7053681765E-03      0.1317437318E-02

    ------------------------------------------------
       NWT REQUIRED            3 OUTER ITERATIONS 
       AND A TOTAL OF          5 INNER ITERATIONS.
    ------------------------------------------------

 NO OUTPUT CONTROL FOR STRESS PERIOD   21   TIME STEP    9
 
 SOLVING FOR HEAD 
                                                   Max.-Head-Change                         Max.-Flux-Residual
  Residual-Control   Outer-Iter.   Inner-Iter.     Column Row Layer    Maximum-Head-Change  Column Row Layer    Maximum-Flux-Residual          L2-NORM 
          0                 1           2             2    1     1       0.1939203194E-02       2    1    1         0.1006639335E+00      0.1874237255E+00
          0                 2           2             2    1     1      -0.1886317112E-03       2    1    1        -0.1006640132E-01      0.1874237171E-01
          0                 3           1             2    1     1       0.1284511971E-04       2    1    1         0.7046483359E-03      0.1311966841E-02

    ------------------------------------------------
       NWT REQUIRED            3 OUTER ITERATIONS 
       AND A TOTAL OF          5 INNER ITERATIONS.
    ------------------------------------------------

 NO OUTPUT CONTROL FOR STRESS PERIOD   21   TIME STEP   10
 
 SOLVING FOR HEAD 
                                                   Max.-Head-Change                         Max.-Flux-Residual
  Residual-Control   Outer-Iter.   Inner-Iter.     Column Row Layer    Maximum-Head-Change  Column Row Layer    Maximum-Flux-Residual          L2-NORM 
          0                 1           2             2    1     1       0.1937271532E-02       2    1    1         0.1005630057E+00      0.1866778294E+00
          0                 2           2             2    1     1      -0.1884438119E-03       2    1    1        -0.1005630849E-01      0.1866778254E-01
          0                 3           1             2    1     1       0.1283232421E-04       2    1    1         0.7039418164E-03      0.1306743568E-02

    ------------------------------------------------
       NWT REQUIRED            3 OUTER ITERATIONS 
       AND A TOTAL OF          5 INNER ITERATIONS.
    ------------------------------------------------

 NO OUTPUT CONTROL FOR STRESS PERIOD   21   TIME STEP   11
 
 SOLVING FOR HEAD 
                                                   Max.-Head-Change                         Max.-Flux-Residual
  Residual-Control   Outer-Iter.   Inner-Iter.     Column Row Layer    Maximum-Head-Change  Column Row Layer    Maximum-Flux-Residual          L2-NORM 
          0                 1           2             2    1     1       0.1935333227E-02       2    1    1         0.1004617367E+00      0.1859646095E+00
          0                 2           2             2    1     1      -0.1882552671E-03       2    1    1        -0.1004618154E-01      0.1859645860E-01
          0                 3           1             2    1     1       0.1281948516E-04       2    1    1         0.7032329476E-03      0.1301751812E-02

    ------------------------------------------------
       NWT REQUIRED            3 OUTER ITERATIONS 
       AND A TOTAL OF          5 INNER ITERATIONS.
    ------------------------------------------------

 NO OUTPUT CONTROL FOR STRESS PERIOD   21   TIME STEP   12
 
 SOLVING FOR HEAD 
                                                   Max.-Head-Change                         Max.-Flux-Residual
  Residual-Control   Outer-Iter.   Inner-Iter.     Column Row Layer    Maximum-Head-Change  Column Row Layer    Maximum-Flux-Residual          L2-NORM 
          0                 1           2             2    1     1       0.1933430926E-02       2    1    1         0.1003623530E+00      0.1852866739E+00
          0                 2           2             2    1     1      -0.1880702240E-03       2    1    1        -0.1003624311E-01      0.1852866357E-01
          0                 3           1             2    1     1       0.1280688443E-04       2    1    1         0.7025372473E-03      0.1297006684E-02

    ------------------------------------------------
       NWT REQUIRED            3 OUTER ITERATIONS 
       AND A TOTAL OF          5 INNER ITERATIONS.
    ------------------------------------------------

 NO OUTPUT CONTROL FOR STRESS PERIOD   21   TIME STEP   13
 
 SOLVING FOR HEAD 
                                                   Max.-Head-Change                         Max.-Flux-Residual
  Residual-Control   Outer-Iter.   Inner-Iter.     Column Row Layer    Maximum-Head-Change  Column Row Layer    Maximum-Flux-Residual          L2-NORM 
          0                 1           2             2    1     1       0.1931521569E-02       2    1    1         0.1002626063E+00      0.1846343881E+00
          0                 2           2             2    1     1      -0.1878844948E-03       2    1    1        -0.1002626838E-01      0.1846343401E-01
          0                 3           1             2    1     1       0.1279423709E-04       2    1    1         0.7018390140E-03      0.1292436636E-02

    ------------------------------------------------
       NWT REQUIRED            3 OUTER ITERATIONS 
       AND A TOTAL OF          5 INNER ITERATIONS.
    ------------------------------------------------

 NO OUTPUT CONTROL FOR STRESS PERIOD   21   TIME STEP   14
 
 SOLVING FOR HEAD 
                                                   Max.-Head-Change                         Max.-Flux-Residual
  Residual-Control   Outer-Iter.   Inner-Iter.     Column Row Layer    Maximum-Head-Change  Column Row Layer    Maximum-Flux-Residual          L2-NORM 
          0                 1           2             2    1     1       0.1929626458E-02       2    1    1         0.1001636086E+00      0.1840103876E+00
          0                 2           2             2    1     1      -0.1877001512E-03       2    1    1        -0.1001636853E-01      0.1840103507E-01
          0                 3           1             2    1     1       0.1278168394E-04       2    1    1         0.7011460330E-03      0.1288092280E-02

    ------------------------------------------------
       NWT REQUIRED            3 OUTER ITERATIONS 
       AND A TOTAL OF          5 INNER ITERATIONS.
    ------------------------------------------------

 NO OUTPUT CONTROL FOR STRESS PERIOD   21   TIME STEP   15
 
 SOLVING FOR HEAD 
                                                   Max.-Head-Change                         Max.-Flux-Residual
  Residual-Control   Outer-Iter.   Inner-Iter.     Column Row Layer    Maximum-Head-Change  Column Row Layer    Maximum-Flux-Residual          L2-NORM 
          0                 1           2             2    1     1       0.1927766849E-02       2    1    1         0.1000664646E+00      0.1834214907E+00
          0                 2           2             2    1     1      -0.1875192613E-03       2    1    1        -0.1000665410E-01      0.1834214592E-01
          0                 3           1             2    1     1       0.1276936628E-04       2    1    1         0.7004660185E-03      0.1283950770E-02

    ------------------------------------------------
       NWT REQUIRED            3 OUTER ITERATIONS 
       AND A TOTAL OF          5 INNER ITERATIONS.
    ------------------------------------------------

 NO OUTPUT CONTROL FOR STRESS PERIOD   21   TIME STEP   16
 
 SOLVING FOR HEAD 
                                                   Max.-Head-Change                         Max.-Flux-Residual
  Residual-Control   Outer-Iter.   Inner-Iter.     Column Row Layer    Maximum-Head-Change  Column Row Layer    Maximum-Flux-Residual          L2-NORM 
          0                 1           2             2    1     1       0.1925899491E-02       2    1    1         0.9996893123E-01      0.1828495924E+00
          0                 2           2             2    1     1      -0.1873376175E-03       2    1    1        -0.9996900714E-02      0.1828495768E-01
          0                 3           1             2    1     1       0.1275699678E-04       2    1    1         0.6997832782E-03      0.1279947926E-02

    ------------------------------------------------
       NWT REQUIRED            3 OUTER ITERATIONS 
       AND A TOTAL OF          5 INNER ITERATIONS.
    ------------------------------------------------

 NO OUTPUT CONTROL FOR STRESS PERIOD   21   TIME STEP   17
 
 SOLVING FOR HEAD 
                                                   Max.-Head-Change                         Max.-Flux-Residual
  Residual-Control   Outer-Iter.   Inner-Iter.     Column Row Layer    Maximum-Head-Change  Column Row Layer    Maximum-Flux-Residual          L2-NORM 
          0                 1           2             2    1     1       0.1924045795E-02       2    1    1         0.9987211108E-01      0.1823041300E+00
          0                 2           2             2    1     1      -0.1871573027E-03       2    1    1        -0.9987218660E-02      0.1823040735E-01
          0                 3           1             2    1     1       0.1274471794E-04       2    1    1         0.6991055239E-03      0.1276133776E-02

    ------------------------------------------------
       NWT REQUIRED            3 OUTER ITERATIONS 
       AND A TOTAL OF          5 INNER ITERATIONS.
    ------------------------------------------------

 NO OUTPUT CONTROL FOR STRESS PERIOD   21   TIME STEP   18
 
 SOLVING FOR HEAD 
                                                   Max.-Head-Change                         Max.-Flux-Residual
  Residual-Control   Outer-Iter.   Inner-Iter.     Column Row Layer    Maximum-Head-Change  Column Row Layer    Maximum-Flux-Residual          L2-NORM 
          0                 1           2             2    1     1       0.1922227030E-02       2    1    1         0.9977711458E-01      0.1817805942E+00
          0                 2           2             2    1     1      -0.1869803853E-03       2    1    1        -0.9977718932E-02      0.1817805700E-01
          0                 3           1             2    1     1       0.1273267056E-04       2    1    1         0.6984405479E-03      0.1272498378E-02

    ------------------------------------------------
       NWT REQUIRED            3 OUTER ITERATIONS 
       AND A TOTAL OF          5 INNER ITERATIONS.
    ------------------------------------------------

 NO OUTPUT CONTROL FOR STRESS PERIOD   21   TIME STEP   19
 
 SOLVING FOR HEAD 
                                                   Max.-Head-Change                         Max.-Flux-Residual
  Residual-Control   Outer-Iter.   Inner-Iter.     Column Row Layer    Maximum-Head-Change  Column Row Layer    Maximum-Flux-Residual          L2-NORM 
          0                 1           2             2    1     1       0.1920400044E-02       2    1    1         0.9968169876E-01      0.1812773666E+00
          0                 2           2             2    1     1      -0.1868026689E-03       2    1    1        -0.9968177297E-02      0.1812773300E-01
          0                 3           1             2    1     1       0.1272056922E-04       2    1    1         0.6977726489E-03      0.1268943167E-02

    ------------------------------------------------
       NWT REQUIRED            3 OUTER ITERATIONS 
       AND A TOTAL OF          5 INNER ITERATIONS.
    ------------------------------------------------

 NO OUTPUT CONTROL FOR STRESS PERIOD   21   TIME STEP   20
 
 SOLVING FOR HEAD 
                                                   Max.-Head-Change                         Max.-Flux-Residual
  Residual-Control   Outer-Iter.   Inner-Iter.     Column Row Layer    Maximum-Head-Change  Column Row Layer    Maximum-Flux-Residual          L2-NORM 
          0                 1           2             2    1     1       0.1918586263E-02       2    1    1         0.9958697194E-01      0.1807913884E+00
          0                 2           2             2    1     1      -0.1866262368E-03       2    1    1        -0.9958704568E-02      0.1807913726E-01
          0                 3           1             2    1     1       0.1270855474E-04       2    1    1         0.6971095701E-03      0.1265540339E-02

    ------------------------------------------------
       NWT REQUIRED            3 OUTER ITERATIONS 
       AND A TOTAL OF          5 INNER ITERATIONS.
    ------------------------------------------------

 NO OUTPUT CONTROL FOR STRESS PERIOD   21   TIME STEP   21
 
 SOLVING FOR HEAD 
                                                   Max.-Head-Change                         Max.-Flux-Residual
  Residual-Control   Outer-Iter.   Inner-Iter.     Column Row Layer    Maximum-Head-Change  Column Row Layer    Maximum-Flux-Residual          L2-NORM 
          0                 1           2             2    1     1       0.1916806867E-02       2    1    1         0.9949404516E-01      0.1803286088E+00
          0                 2           2             2    1     1      -0.1864531497E-03       2    1    1        -0.9949411874E-02      0.1803285644E-01
          0                 3           1             2    1     1       0.1269676793E-04       2    1    1         0.6964590550E-03      0.1262299466E-02

    ------------------------------------------------
       NWT REQUIRED            3 OUTER ITERATIONS 
       AND A TOTAL OF          5 INNER ITERATIONS.
    ------------------------------------------------

 NO OUTPUT CONTROL FOR STRESS PERIOD   21   TIME STEP   22
 
 SOLVING FOR HEAD 
                                                   Max.-Head-Change                         Max.-Flux-Residual
  Residual-Control   Outer-Iter.   Inner-Iter.     Column Row Layer    Maximum-Head-Change  Column Row Layer    Maximum-Flux-Residual          L2-NORM 
          0                 1           2             2    1     1       0.1915018735E-02       2    1    1         0.9940067039E-01      0.1798785951E+00
          0                 2           2             2    1     1      -0.1862792116E-03       2    1    1        -0.9940074315E-02      0.1798785518E-01
          0                 3           1             2    1     1       0.1268492315E-04       2    1    1         0.6958054116E-03      0.1259147720E-02

    ------------------------------------------------
       NWT REQUIRED            3 OUTER ITERATIONS 
       AND A TOTAL OF          5 INNER ITERATIONS.
    ------------------------------------------------

 NO OUTPUT CONTROL FOR STRESS PERIOD   21   TIME STEP   23
 
 SOLVING FOR HEAD 
                                                   Max.-Head-Change                         Max.-Flux-Residual
  Residual-Control   Outer-Iter.   Inner-Iter.     Column Row Layer    Maximum-Head-Change  Column Row Layer    Maximum-Flux-Residual          L2-NORM 
          0                 1           2             2    1     1       0.1913243176E-02       2    1    1         0.9930795805E-01      0.1794467547E+00
          0                 2           2             2    1     1      -0.1861064977E-03       2    1    1        -0.9930803043E-02      0.1794466976E-01
          0                 3           1             2    1     1       0.1267316214E-04       2    1    1         0.6951564386E-03      0.1256126080E-02

    ------------------------------------------------
       NWT REQUIRED            3 OUTER ITERATIONS 
       AND A TOTAL OF          5 INNER ITERATIONS.
    ------------------------------------------------

 NO OUTPUT CONTROL FOR STRESS PERIOD   21   TIME STEP   24
 
 SOLVING FOR HEAD 
                                                   Max.-Head-Change                         Max.-Flux-Residual
  Residual-Control   Outer-Iter.   Inner-Iter.     Column Row Layer    Maximum-Head-Change  Column Row Layer    Maximum-Flux-Residual          L2-NORM 
          0                 1           2             2    1     1       0.1911501484E-02       2    1    1         0.9921701327E-01      0.1790311766E+00
          0                 2           2             2    1     1      -0.1859370782E-03       2    1    1        -0.9921708536E-02      0.1790310776E-01
          0                 3           1             2    1     1       0.1266162550E-04       2    1    1         0.6945198219E-03      0.1253206985E-02

    ------------------------------------------------
       NWT REQUIRED            3 OUTER ITERATIONS 
       AND A TOTAL OF          5 INNER ITERATIONS.
    ------------------------------------------------

 NO OUTPUT CONTROL FOR STRESS PERIOD   21   TIME STEP   25
 
 SOLVING FOR HEAD 
                                                   Max.-Head-Change                         Max.-Flux-Residual
  Residual-Control   Outer-Iter.   Inner-Iter.     Column Row Layer    Maximum-Head-Change  Column Row Layer    Maximum-Flux-Residual          L2-NORM 
          0                 1           2             2    1     1       0.1909750607E-02       2    1    1         0.9912559322E-01      0.1786310620E+00
          0                 2           2             2    1     1      -0.1857667648E-03       2    1    1        -0.9912566465E-02      0.1786310138E-01
          0                 3           1             2    1     1       0.1265002804E-04       2    1    1         0.6938798930E-03      0.1250418874E-02

    ------------------------------------------------
       NWT REQUIRED            3 OUTER ITERATIONS 
       AND A TOTAL OF          5 INNER ITERATIONS.
    ------------------------------------------------

 NO OUTPUT CONTROL FOR STRESS PERIOD   21   TIME STEP   26
 
 SOLVING FOR HEAD 
                                                   Max.-Head-Change                         Max.-Flux-Residual
  Residual-Control   Outer-Iter.   Inner-Iter.     Column Row Layer    Maximum-Head-Change  Column Row Layer    Maximum-Flux-Residual          L2-NORM 
          0                 1           2             2    1     1       0.1908011797E-02       2    1    1         0.9903481255E-01      0.1782420172E+00
          0                 2           2             2    1     1      -0.1855976248E-03       2    1    1        -0.9903488350E-02      0.1782419590E-01
          0                 3           1             2    1     1       0.1263850986E-04       2    1    1         0.6932443981E-03      0.1247692891E-02

    ------------------------------------------------
       NWT REQUIRED            3 OUTER ITERATIONS 
       AND A TOTAL OF          5 INNER ITERATIONS.
    ------------------------------------------------

 NO OUTPUT CONTROL FOR STRESS PERIOD   21   TIME STEP   27
 
 SOLVING FOR HEAD 
                                                   Max.-Head-Change                         Max.-Flux-Residual
  Residual-Control   Outer-Iter.   Inner-Iter.     Column Row Layer    Maximum-Head-Change  Column Row Layer    Maximum-Flux-Residual          L2-NORM 
          0                 1           2             2    1     1       0.1906284987E-02       2    1    1         0.9894465751E-01      0.1778674573E+00
          0                 2           2             2    1     1      -0.1854296529E-03       2    1    1        -0.9894472807E-02      0.1778674177E-01
          0                 3           1             2    1     1       0.1262707192E-04       2    1    1         0.6926133192E-03      0.1245072163E-02

    ------------------------------------------------
       NWT REQUIRED            3 OUTER ITERATIONS 
       AND A TOTAL OF          5 INNER ITERATIONS.
    ------------------------------------------------

 NO OUTPUT CONTROL FOR STRESS PERIOD   21   TIME STEP   28
 
 SOLVING FOR HEAD 
                                                   Max.-Head-Change                         Max.-Flux-Residual
  Residual-Control   Outer-Iter.   Inner-Iter.     Column Row Layer    Maximum-Head-Change  Column Row Layer    Maximum-Flux-Residual          L2-NORM 
          0                 1           2             2    1     1       0.1904569919E-02       2    1    1         0.9885512472E-01      0.1775076809E+00
          0                 2           2             2    1     1      -0.1852628232E-03       2    1    1        -0.9885519498E-02      0.1775076647E-01
          0                 3           1             2    1     1       0.1261571136E-04       2    1    1         0.6919865898E-03      0.1242554062E-02

    ------------------------------------------------
       NWT REQUIRED            3 OUTER ITERATIONS 
       AND A TOTAL OF          5 INNER ITERATIONS.
    ------------------------------------------------

 NO OUTPUT CONTROL FOR STRESS PERIOD   21   TIME STEP   29
 
 SOLVING FOR HEAD 
                                                   Max.-Head-Change                         Max.-Flux-Residual
  Residual-Control   Outer-Iter.   Inner-Iter.     Column Row Layer    Maximum-Head-Change  Column Row Layer    Maximum-Flux-Residual          L2-NORM 
          0                 1           2             2    1     1       0.1902888002E-02       2    1    1         0.9876731660E-01      0.1771597540E+00
          0                 2           2             2    1     1      -0.1850992176E-03       2    1    1        -0.9876738627E-02      0.1771597231E-01
          0                 3           1             2    1     1       0.1260457044E-04       2    1    1         0.6913719325E-03      0.1240120938E-02

    ------------------------------------------------
       NWT REQUIRED            3 OUTER ITERATIONS 
       AND A TOTAL OF          5 INNER ITERATIONS.
    ------------------------------------------------

 NO OUTPUT CONTROL FOR STRESS PERIOD   21   TIME STEP   30



 STREAM LISTING     PERIOD     21   STEP       30

 LAYER ROW COL. STREAM  RCH.  FLOW INTO     FLOW TO   FLOW OUT OF   OVRLND.     DIRECT     STREAM       STREAM     STREAM     STREAM   STREAMBED  STREAMBED
                SEG.NO.  NO.  STRM. RCH.    AQUIFER    STRM. RCH.    RUNOFF     PRECIP       ET          HEAD       DEPTH      WIDTH   CONDCTNC.   GRADIENT

   1    1    1     1     1    2.7750E+01  2.5751E-01   2.7493E+01  0.000E+00  0.000E+00  0.000E+00  1.09427E+03  1.218E+00  1.357E+01  6.105E-02  1.406E+00
   1    2    2     1     2    2.7493E+01  3.9833E-01   2.7095E+01  0.000E+00  0.000E+00  0.000E+00  1.08927E+03  1.213E+00  1.351E+01  9.454E-02  1.404E+00
   1    3    3     1     3    2.7095E+01  3.3924E-01   2.6755E+01  0.000E+00  0.000E+00  0.000E+00  1.08363E+03  1.208E+00  1.344E+01  8.062E-02  1.403E+00
   1    3    4     1     4    2.6755E+01  3.1201E-01   2.6443E+01  0.000E+00  0.000E+00  0.000E+00  1.07861E+03  1.203E+00  1.337E+01  7.423E-02  1.401E+00
   1    4    5     2     1    2.4443E+01  3.2655E-01   2.4117E+01  0.000E+00  0.000E+00  0.000E+00  1.07312E+03  1.187E+00  1.200E+01  7.800E-02  1.396E+00
   1    5    6     2     2    2.4117E+01  2.5069E-01   2.3866E+01  0.000E+00  0.000E+00  0.000E+00  1.06769E+03  1.178E+00  1.200E+01  6.000E-02  1.393E+00
   1    6    6     2     3    2.3866E+01  2.5024E-01   2.3616E+01  0.000E+00  0.000E+00  0.000E+00  1.06296E+03  1.171E+00  1.200E+01  6.000E-02  1.390E+00
   1    7    6     2     4    2.3616E+01  2.4980E-01   2.3366E+01  0.000E+00  0.000E+00  0.000E+00  1.05824E+03  1.163E+00  1.200E+01  6.000E-02  1.388E+00
   1    8    6     2     5    2.3366E+01  2.4935E-01   2.3117E+01  0.000E+00  0.000E+00  0.000E+00  1.05351E+03  1.156E+00  1.200E+01  6.000E-02  1.385E+00
   1    3    5     3     1    2.0000E+00  2.8252E-01   1.7175E+00  0.000E+00  0.000E+00  0.000E+00  1.07555E+03  1.909E+00  9.636E+00  7.227E-02  1.955E+00
   1    3    6     3     2    1.7175E+00  2.4905E-01   1.4684E+00  0.000E+00  0.000E+00  0.000E+00  1.07264E+03  1.727E+00  8.909E+00  6.682E-02  1.864E+00
   1    3    7     3     3    1.4684E+00  1.9718E-01   1.2712E+00  0.000E+00  0.000E+00  0.000E+00  1.06987E+03  1.555E+00  8.218E+00  5.547E-02  1.777E+00
   1    4    8     3     4    1.2712E+00  2.2567E-01   1.0456E+00  0.000E+00  0.000E+00  0.000E+00  1.06682E+03  1.364E+00  7.455E+00  6.709E-02  1.682E+00
   1    5    8     3     5    1.0456E+00  1.5790E-01   8.8768E-01  0.000E+00  0.000E+00  0.000E+00  1.06362E+03  1.164E+00  6.655E+00  4.991E-02  1.582E+00
   1    6    8     3     6    8.8768E-01  5.5980E-02   8.3170E-01  0.000E+00  0.000E+00  0.000E+00  1.06158E+03  1.036E+00  6.145E+00  1.844E-02  1.518E+00
   1    5   10     4     1    1.0000E+01  9.0919E-02   9.9091E+00  0.000E+00  0.000E+00  0.000E+00  1.07836E+03  6.368E-01  1.000E+01  2.500E-02  1.212E+00
   1    5    9     4     2    9.9091E+00  1.8158E-01   9.7275E+00  0.000E+00  0.000E+00  0.000E+00  1.07154E+03  6.315E-01  1.000E+01  5.000E-02  1.211E+00
   1    6    8     4     3    9.7275E+00  1.2689E-01   9.6006E+00  0.000E+00  0.000E+00  0.000E+00  1.06381E+03  6.256E-01  1.000E+01  3.500E-02  1.209E+00
   1    6    8     5     1    1.0432E+01  2.2686E-01   1.0205E+01  0.000E+00  0.000E+00  0.000E+00  1.05868E+03  6.790E-01  1.542E+01  6.166E-02  1.226E+00
   1    7    7     5     2    1.0205E+01  2.7894E-01   9.9265E+00  0.000E+00  0.000E+00  0.000E+00  1.05417E+03  6.732E-01  1.519E+01  7.594E-02  1.224E+00
   1    8    7     5     3    9.9265E+00  1.9221E-01   9.7343E+00  0.000E+00  0.000E+00  0.000E+00  1.04992E+03  6.676E-01  1.497E+01  5.241E-02  1.223E+00
   1    8    6     5     4    9.7343E+00  1.3577E-01   9.5985E+00  0.000E+00  0.000E+00  0.000E+00  1.04691E+03  6.637E-01  1.482E+01  3.706E-02  1.221E+00
   1    9    6     6     1    9.5985E+00  2.2097E-01   9.3776E+00  0.000E+00  0.000E+00  0.000E+00  1.04341E+03  6.828E-01  1.200E+01  6.000E-02  1.228E+00
   1   10    7     6     2    9.3776E+00  2.2039E-01   9.1572E+00  0.000E+00  0.000E+00  0.000E+00  1.03885E+03  6.732E-01  1.200E+01  6.000E-02  1.224E+00
   1   11    7     6     3    9.1572E+00  2.1981E-01   8.9374E+00  0.000E+00  0.000E+00  0.000E+00  1.03430E+03  6.636E-01  1.200E+01  6.000E-02  1.221E+00
   1   12    7     6     4    8.9374E+00  2.1923E-01   8.7181E+00  0.000E+00  0.000E+00  0.000E+00  1.02974E+03  6.539E-01  1.200E+01  6.000E-02  1.218E+00
   1   13    7     6     5    8.7181E+00 -1.1102E-01   8.8292E+00  0.000E+00  0.000E+00  0.000E+00  1.02656E+03  6.514E-01  1.200E+01  2.400E-01 -1.542E-01
   1   14    9     7     1    1.5000E+02  1.3428E+00   1.4866E+02  0.000E+00  0.000E+00  0.000E+00  1.03987E+03  2.288E+00  5.529E+01  5.593E-01  8.003E-01
   1   13    8     7     2    1.4866E+02  1.8478E+00   1.4681E+02  0.000E+00  0.000E+00  0.000E+00  1.03478E+03  2.279E+00  5.526E+01  6.148E-01  1.002E+00
   1   13    7     7     3    1.4681E+02  1.4891E+00   1.4532E+02  0.000E+00  0.000E+00  0.000E+00  1.02969E+03  2.270E+00  5.522E+01  5.584E-01  8.888E-01
   1   13    6     8     1    1.5415E+02  8.4101E-01   1.5331E+02  0.000E+00  0.000E+00  0.000E+00  1.02472E+03  2.843E+00  4.122E+01  4.201E-01  6.674E-01
   1   13    5     8     2    1.5331E+02  1.1104E-01   1.5320E+02  0.000E+00  0.000E+00  0.000E+00  1.01846E+03  2.840E+00  4.117E+01  4.196E-01  8.821E-02
   1   13    4     8     3    1.5320E+02 -2.6435E+00   1.5584E+02  0.000E+00  0.000E+00  0.000E+00  1.01222E+03  2.848E+00  4.130E+01  4.209E+00 -2.094E-01
   1   13    3     8     4    1.5584E+02 -3.7310E+00   1.5957E+02  0.000E+00  0.000E+00  0.000E+00  1.00600E+03  2.870E+00  4.162E+01  4.241E+00 -2.932E-01
   1   13    2     8     5    1.5957E+02 -2.5949E+00   1.6217E+02  0.000E+00  0.000E+00  0.000E+00  9.99767E+02  2.892E+00  4.193E+01  4.273E+00 -2.024E-01
   1   13    1     8     6    1.6217E+02 -1.9797E+00   1.6415E+02  0.000E+00  0.000E+00  0.000E+00  9.94782E+02  2.907E+00  4.215E+01  2.577E+00 -2.561E-01
   1    8    6     9     1    2.3117E+01  0.0000E+00   2.3117E+01  0.000E+00  0.000E+00  0.000E+00  1.08250E+03  3.747E+00  4.000E+00  0.000E+00  2.249E+00
   1    8    5     9     2    2.3117E+01  0.0000E+00   2.3117E+01  0.000E+00  0.000E+00  0.000E+00  1.08200E+03  3.747E+00  4.000E+00  0.000E+00  2.249E+00





UNSATURATED ZONE PACKAGE VOLUMETRIC BUDGET FOR  TIME STEP    30 STRESS PERIOD   21
  ------------------------------------------------------------------------------



     CUMULATIVE VOLUMES      L**3       RATES FOR THIS TIME STEP      L**3/T
     ------------------                 ------------------------

           IN:                                      IN:
           ---                                      ---
        INFILTRATION =    44651721.4548          INFILTRATION =           0.8475

          OUT:                                     OUT:
          ----                                     ----
              UZF ET =    43906803.6841                UZF ET =           0.8475
        UZF RECHARGE =       73224.0000          UZF RECHARGE =       0.0000E+00

            IN - OUT =      671693.7707              IN - OUT =       0.0000E+00

          STORAGE:                                 STORAGE:
          --------                                 --------
      STORAGE CHANGE =      671693.9465        STORAGE CHANGE =      -3.3198E-16

 PERCENT DISCREPANCY IS DIFFERENCE BETWEEN IN-OUT MINUS CHANGE IN STORAGE
 DIVIDED BY THE AVERAGE OF IN AND OUT TIMES 100

 PERCENT DISCREPANCY =           0.00     PERCENT DISCREPANCY =           0.00






1
  VOLUMETRIC BUDGET FOR ENTIRE MODEL AT END OF TIME STEP   30, STRESS PERIOD  21
  ------------------------------------------------------------------------------

     CUMULATIVE VOLUMES      L**3       RATES FOR THIS TIME STEP      L**3/T
     ------------------                 ------------------------

           IN:                                      IN:
           ---                                      ---
             STORAGE     =    21176256.0000               STORAGE     =           0.1977
       CONSTANT HEAD     =           0.0000         CONSTANT HEAD     =           0.0000
     HEAD DEP BOUNDS     =    15067848.0000       HEAD DEP BOUNDS     =           0.2862
      STREAM LEAKAGE     =   621166912.0000        STREAM LEAKAGE     =          11.5473
        UZF RECHARGE     =       73223.9531          UZF RECHARGE     =           0.0000
               GW ET     =           0.0000                 GW ET     =           0.0000
     SURFACE LEAKAGE     =           0.0000       SURFACE LEAKAGE     =           0.0000

                TOTAL IN =   657484224.0000                  TOTAL IN =          12.0312

          OUT:                                     OUT:
          ----                                     ----
             STORAGE     =    58228352.0000               STORAGE     =           0.6843
       CONSTANT HEAD     =           0.0000         CONSTANT HEAD     =           0.0000
     HEAD DEP BOUNDS     =    15117436.0000       HEAD DEP BOUNDS     =           0.2869
      STREAM LEAKAGE     =   584148800.0000        STREAM LEAKAGE     =          11.0602
        UZF RECHARGE     =           0.0000          UZF RECHARGE     =           0.0000
               GW ET     =           0.0000                 GW ET     =           0.0000
     SURFACE LEAKAGE     =           0.0000       SURFACE LEAKAGE     =           0.0000

               TOTAL OUT =   657494592.0000                 TOTAL OUT =          12.0314

                IN - OUT =      -10368.0000                  IN - OUT =      -1.3542E-04

     PERCENT DISCREPANCY =          -0.00         PERCENT DISCREPANCY =          -0.00






         TIME SUMMARY AT END OF TIME STEP   30 IN STRESS PERIOD   21
                    SECONDS     MINUTES      HOURS       DAYS        YEARS
                    -----------------------------------------------------------
   TIME STEP LENGTH  87667.      1461.1      24.352      1.0147     2.77799E-03
 STRESS PERIOD TIME 2.63000E+06  43833.      730.56      30.440     8.33397E-02
         TOTAL TIME 5.26866E+07 8.78110E+05  14635.      609.80      1.6695    
1
1
                            STRESS PERIOD NO.   22, LENGTH =   2630000.    
                            -----------------------------------------------

                              NUMBER OF TIME STEPS =    30

                               MULTIPLIER FOR DELT =     1.000

                            INITIAL TIME STEP SIZE =   87666.66    

 REUSING NON-PARAMETER GHB CELLS FROM LAST STRESS PERIOD

      2 GHB CELLS

 REUSING STREAM SEGMENT DATA FROM LAST STRESS PERIOD



            AREAL INFILTRATION RATE
 READING ON UNIT   19 WITH FORMAT: (FREE)              

            1           2           3           4           5           6           7           8           9          10
 ........................................................................................................................
   1   1.0000E-10  2.0000E-10   0.000       0.000       0.000       0.000       0.000       0.000       0.000       0.000    
   2   2.0000E-10  1.0000E-10  2.0000E-10   0.000       0.000      8.0000E-10  8.0000E-10  5.0000E-10   0.000       0.000    
   3    0.000      5.0000E-10  1.0000E-10  1.0000E-10  8.0000E-10  8.0000E-10  5.0000E-10  5.0000E-10   0.000       0.000    
   4   8.0000E-10  5.0000E-10  1.0000E-10  1.0000E-10  1.0000E-10  1.0000E-10  1.0000E-10  1.0000E-10  2.0000E-10   0.000    
   5   8.0000E-10  5.0000E-10  1.0000E-10  1.0000E-10  1.0000E-10  1.0000E-10  1.0000E-10  1.0000E-10  1.0000E-10  1.0000E-10
   6   8.0000E-10  5.0000E-10  5.0000E-10  2.0000E-10  2.0000E-10  1.0000E-10  1.0000E-10  1.0000E-10  1.0000E-10  5.0000E-10
   7   8.0000E-10  5.0000E-10  5.0000E-10  2.0000E-10  2.0000E-10  1.0000E-10  1.0000E-10  2.0000E-10  2.0000E-10   0.000    
   8    0.000      5.0000E-10  5.0000E-10  2.0000E-10  2.0000E-10  1.0000E-10  1.0000E-10  2.0000E-10  5.0000E-10   0.000    
   9    0.000      5.0000E-10  5.0000E-10  2.0000E-10  2.0000E-10  1.0000E-10  1.0000E-10  2.0000E-10  5.0000E-10   0.000    
  10    0.000      5.0000E-10  5.0000E-10  2.0000E-10  2.0000E-10  1.0000E-10  1.0000E-10  2.0000E-10  5.0000E-10  8.0000E-10
  11    0.000      1.0000E-10  1.0000E-10  1.0000E-10  1.0000E-10  1.0000E-10  1.0000E-10  2.0000E-10  5.0000E-10   0.000    
  12   1.0000E-10  1.0000E-10  1.0000E-10  1.0000E-10  1.0000E-10  1.0000E-10  1.0000E-10  1.0000E-10  2.0000E-10   0.000    
  13   1.0000E-10  1.0000E-10  2.0000E-10  2.0000E-10  2.0000E-10  2.0000E-10  2.0000E-10  1.0000E-10  1.0000E-10   0.000    
  14    0.000      2.0000E-10  5.0000E-10  5.0000E-10  5.0000E-10  5.0000E-10  5.0000E-10  2.0000E-10  1.0000E-10   0.000    
  15    0.000       0.000      8.0000E-10  8.0000E-10  8.0000E-10  8.0000E-10   0.000       0.000       0.000       0.000    

                  ET RATE =  7.500000E-08

 USING ET EXTINCTION DEPTH FROM PREVIOUS STRESS PERIOD. CURRENT PERIOD IS:      22

 USING EXTINCTION WATER CONTENT FROM PREVIOUS STRESS PERIOD. CURRENT PERIOD IS:      22

 USING AIR ENTRY PRESSURE FROM PREVIOUS STRESS PERIOD. CURRENT PERIOD IS:      22

 USING ROOT PRESSURE HEAD FROM PREVIOUS STRESS PERIOD. CURRENT PERIOD IS:      22

 USING ROOT ACTIVITY FROM PREVIOUS STRESS PERIOD. CURRENT PERIOD IS:      22
 
 SOLVING FOR HEAD 
                                                   Max.-Head-Change                         Max.-Flux-Residual
  Residual-Control   Outer-Iter.   Inner-Iter.     Column Row Layer    Maximum-Head-Change  Column Row Layer    Maximum-Flux-Residual          L2-NORM 
          0                 1           2             2    1     1       0.1899113878E-02       2    1    1         0.9867899550E-01      0.1737227939E+00
          0                 2           2             2    1     1      -0.1847321743E-03       2    1    1        -0.9867911474E-02      0.1737228319E-01
          0                 3           1             2    1     1       0.1257957348E-04       2    1    1         0.6907539991E-03      0.1216056746E-02

    ------------------------------------------------
       NWT REQUIRED            3 OUTER ITERATIONS 
       AND A TOTAL OF          5 INNER ITERATIONS.
    ------------------------------------------------

 NO OUTPUT CONTROL FOR STRESS PERIOD   22   TIME STEP    1
 
 SOLVING FOR HEAD 
                                                   Max.-Head-Change                         Max.-Flux-Residual
  Residual-Control   Outer-Iter.   Inner-Iter.     Column Row Layer    Maximum-Head-Change  Column Row Layer    Maximum-Flux-Residual          L2-NORM 
          0                 1           2             2    1     1       0.1894858046E-02       2    1    1         0.9848327587E-01      0.1792278988E+00
          0                 2           2             2    1     1      -0.1843182103E-03       2    1    1        -0.9848340324E-02      0.1792279074E-01
          0                 3           1             2    1     1       0.1255138380E-04       2    1    1         0.6893840105E-03      0.1254626191E-02

    ------------------------------------------------
       NWT REQUIRED            3 OUTER ITERATIONS 
       AND A TOTAL OF          5 INNER ITERATIONS.
    ------------------------------------------------

 NO OUTPUT CONTROL FOR STRESS PERIOD   22   TIME STEP    2
 
 SOLVING FOR HEAD 
                                                   Max.-Head-Change                         Max.-Flux-Residual
  Residual-Control   Outer-Iter.   Inner-Iter.     Column Row Layer    Maximum-Head-Change  Column Row Layer    Maximum-Flux-Residual          L2-NORM 
          0                 1           2             2    1     1       0.1890632533E-02       2    1    1         0.9826260696E-01      0.1770960738E+00
          0                 2           2             2    1     1      -0.1839071814E-03       2    1    1        -0.9826273330E-02      0.1770961517E-01
          0                 3           1             2    1     1       0.1252339411E-04       2    1    1         0.6878392992E-03      0.1239673285E-02

    ------------------------------------------------
       NWT REQUIRED            3 OUTER ITERATIONS 
       AND A TOTAL OF          5 INNER ITERATIONS.
    ------------------------------------------------

 NO OUTPUT CONTROL FOR STRESS PERIOD   22   TIME STEP    3
 
 SOLVING FOR HEAD 
                                                   Max.-Head-Change                         Max.-Flux-Residual
  Residual-Control   Outer-Iter.   Inner-Iter.     Column Row Layer    Maximum-Head-Change  Column Row Layer    Maximum-Flux-Residual          L2-NORM 
          0                 1           2             2    1     1       0.1886437104E-02       2    1    1         0.9804351849E-01      0.1750608873E+00
          0                 2           2             2    1     1      -0.1834990792E-03       2    1    1        -0.9804364377E-02      0.1750608929E-01
          0                 3           1             2    1     1       0.1249560417E-04       2    1    1         0.6863056947E-03      0.1225426759E-02

    ------------------------------------------------
       NWT REQUIRED            3 OUTER ITERATIONS 
       AND A TOTAL OF          5 INNER ITERATIONS.
    ------------------------------------------------

 NO OUTPUT CONTROL FOR STRESS PERIOD   22   TIME STEP    4
 
 SOLVING FOR HEAD 
                                                   Max.-Head-Change                         Max.-Flux-Residual
  Residual-Control   Outer-Iter.   Inner-Iter.     Column Row Layer    Maximum-Head-Change  Column Row Layer    Maximum-Flux-Residual          L2-NORM 
          0                 1           2             2    1     1       0.1882271423E-02       2    1    1         0.9782598979E-01      0.1730972279E+00
          0                 2           2             2    1     1      -0.1830938700E-03       2    1    1        -0.9782611406E-02      0.1730972995E-01
          0                 3           1             2    1     1       0.1246801044E-04       2    1    1         0.6847829599E-03      0.1211679695E-02

    ------------------------------------------------
       NWT REQUIRED            3 OUTER ITERATIONS 
       AND A TOTAL OF          5 INNER ITERATIONS.
    ------------------------------------------------

 NO OUTPUT CONTROL FOR STRESS PERIOD   22   TIME STEP    5
 
 SOLVING FOR HEAD 
                                                   Max.-Head-Change                         Max.-Flux-Residual
  Residual-Control   Outer-Iter.   Inner-Iter.     Column Row Layer    Maximum-Head-Change  Column Row Layer    Maximum-Flux-Residual          L2-NORM 
          0                 1           2             2    1     1       0.1878135130E-02       2    1    1         0.9761000349E-01      0.1712143843E+00
          0                 2           2             2    1     1      -0.1826915202E-03       2    1    1        -0.9761012670E-02      0.1712143675E-01
          0                 3           1             2    1     1       0.1244061243E-04       2    1    1         0.6832710688E-03      0.1198500746E-02

    ------------------------------------------------
       NWT REQUIRED            3 OUTER ITERATIONS 
       AND A TOTAL OF          5 INNER ITERATIONS.
    ------------------------------------------------

 NO OUTPUT CONTROL FOR STRESS PERIOD   22   TIME STEP    6
 
 SOLVING FOR HEAD 
                                                   Max.-Head-Change                         Max.-Flux-Residual
  Residual-Control   Outer-Iter.   Inner-Iter.     Column Row Layer    Maximum-Head-Change  Column Row Layer    Maximum-Flux-Residual          L2-NORM 
          0                 1           2             2    1     1       0.1874027844E-02       2    1    1         0.9739554097E-01      0.1694027046E+00
          0                 2           2             2    1     1      -0.1822919918E-03       2    1    1        -0.9739566314E-02      0.1694027419E-01
          0                 3           1             2    1     1       0.1241340613E-04       2    1    1         0.6817698229E-03      0.1185821106E-02

    ------------------------------------------------
       NWT REQUIRED            3 OUTER ITERATIONS 
       AND A TOTAL OF          5 INNER ITERATIONS.
    ------------------------------------------------

 NO OUTPUT CONTROL FOR STRESS PERIOD   22   TIME STEP    7
 
 SOLVING FOR HEAD 
                                                   Max.-Head-Change                         Max.-Flux-Residual
  Residual-Control   Outer-Iter.   Inner-Iter.     Column Row Layer    Maximum-Head-Change  Column Row Layer    Maximum-Flux-Residual          L2-NORM 
          0                 1           2             2    1     1       0.1869949246E-02       2    1    1         0.9718258243E-01      0.1676524155E+00
          0                 2           2             2    1     1      -0.1818952535E-03       2    1    1        -0.9718270349E-02      0.1676524591E-01
          0                 3           1             2    1     1       0.1238638987E-04       2    1    1         0.6802791016E-03      0.1173568733E-02

    ------------------------------------------------
       NWT REQUIRED            3 OUTER ITERATIONS 
       AND A TOTAL OF          5 INNER ITERATIONS.
    ------------------------------------------------

 NO OUTPUT CONTROL FOR STRESS PERIOD   22   TIME STEP    8
 
 SOLVING FOR HEAD 
                                                   Max.-Head-Change                         Max.-Flux-Residual
  Residual-Control   Outer-Iter.   Inner-Iter.     Column Row Layer    Maximum-Head-Change  Column Row Layer    Maximum-Flux-Residual          L2-NORM 
          0                 1           2             2    1     1       0.1865899091E-02       2    1    1         0.9697111132E-01      0.1659773394E+00
          0                 2           2             2    1     1      -0.1815012825E-03       2    1    1        -0.9697123147E-02      0.1659773849E-01
          0                 3           1             2    1     1       0.1235956154E-04       2    1    1         0.6787987927E-03      0.1161843320E-02

    ------------------------------------------------
       NWT REQUIRED            3 OUTER ITERATIONS 
       AND A TOTAL OF          5 INNER ITERATIONS.
    ------------------------------------------------

 NO OUTPUT CONTROL FOR STRESS PERIOD   22   TIME STEP    9
 
 SOLVING FOR HEAD 
                                                   Max.-Head-Change                         Max.-Flux-Residual
  Residual-Control   Outer-Iter.   Inner-Iter.     Column Row Layer    Maximum-Head-Change  Column Row Layer    Maximum-Flux-Residual          L2-NORM 
          0                 1           2             2    1     1       0.1861876943E-02       2    1    1         0.9676111497E-01      0.1643580988E+00
          0                 2           2             2    1     1      -0.1811100355E-03       2    1    1        -0.9676123393E-02      0.1643581076E-01
          0                 3           1             2    1     1       0.1233291946E-04       2    1    1         0.6773288274E-03      0.1150507088E-02

    ------------------------------------------------
       NWT REQUIRED            3 OUTER ITERATIONS 
       AND A TOTAL OF          5 INNER ITERATIONS.
    ------------------------------------------------

 NO OUTPUT CONTROL FOR STRESS PERIOD   22   TIME STEP   10
 
 SOLVING FOR HEAD 
                                                   Max.-Head-Change                         Max.-Flux-Residual
  Residual-Control   Outer-Iter.   Inner-Iter.     Column Row Layer    Maximum-Head-Change  Column Row Layer    Maximum-Flux-Residual          L2-NORM 
          0                 1           2             2    1     1       0.1857882539E-02       2    1    1         0.9655257075E-01      0.1627880377E+00
          0                 2           2             2    1     1      -0.1807214878E-03       2    1    1        -0.9655268899E-02      0.1627880927E-01
          0                 3           1             2    1     1       0.1230646081E-04       2    1    1         0.6758690046E-03      0.1139562582E-02

    ------------------------------------------------
       NWT REQUIRED            3 OUTER ITERATIONS 
       AND A TOTAL OF          5 INNER ITERATIONS.
    ------------------------------------------------

 NO OUTPUT CONTROL FOR STRESS PERIOD   22   TIME STEP   11
 
 SOLVING FOR HEAD 
                                                   Max.-Head-Change                         Max.-Flux-Residual
  Residual-Control   Outer-Iter.   Inner-Iter.     Column Row Layer    Maximum-Head-Change  Column Row Layer    Maximum-Flux-Residual          L2-NORM 
          0                 1           2             2    1     1       0.1853915579E-02       2    1    1         0.9634546503E-01      0.1612751901E+00
          0                 2           2             2    1     1      -0.1803356087E-03       2    1    1        -0.9634558207E-02      0.1612752304E-01
          0                 3           1             2    1     1       0.1228018369E-04       2    1    1         0.6744192366E-03      0.1128927331E-02

    ------------------------------------------------
       NWT REQUIRED            3 OUTER ITERATIONS 
       AND A TOTAL OF          5 INNER ITERATIONS.
    ------------------------------------------------

 NO OUTPUT CONTROL FOR STRESS PERIOD   22   TIME STEP   12
 
 SOLVING FOR HEAD 
                                                   Max.-Head-Change                         Max.-Flux-Residual
  Residual-Control   Outer-Iter.   Inner-Iter.     Column Row Layer    Maximum-Head-Change  Column Row Layer    Maximum-Flux-Residual          L2-NORM 
          0                 1           2             2    1     1       0.1849954255E-02       2    1    1         0.9613866557E-01      0.1598188557E+00
          0                 2           2             2    1     1      -0.1799502784E-03       2    1    1        -0.9613878163E-02      0.1598189287E-01
          0                 3           1             2    1     1       0.1225394420E-04       2    1    1         0.6729716414E-03      0.1118724869E-02

    ------------------------------------------------
       NWT REQUIRED            3 OUTER ITERATIONS 
       AND A TOTAL OF          5 INNER ITERATIONS.
    ------------------------------------------------

 NO OUTPUT CONTROL FOR STRESS PERIOD   22   TIME STEP   13
 
 SOLVING FOR HEAD 
                                                   Max.-Head-Change                         Max.-Flux-Residual
  Residual-Control   Outer-Iter.   Inner-Iter.     Column Row Layer    Maximum-Head-Change  Column Row Layer    Maximum-Flux-Residual          L2-NORM 
          0                 1           2             2    1     1       0.1846041270E-02       2    1    1         0.9593439170E-01      0.1584087274E+00
          0                 2           2             2    1     1      -0.1795696500E-03       2    1    1        -0.9593450676E-02      0.1584087589E-01
          0                 3           1             2    1     1       0.1222802492E-04       2    1    1         0.6715417171E-03      0.1108861043E-02

    ------------------------------------------------
       NWT REQUIRED            3 OUTER ITERATIONS 
       AND A TOTAL OF          5 INNER ITERATIONS.
    ------------------------------------------------

 NO OUTPUT CONTROL FOR STRESS PERIOD   22   TIME STEP   14
 
 SOLVING FOR HEAD 
                                                   Max.-Head-Change                         Max.-Flux-Residual
  Residual-Control   Outer-Iter.   Inner-Iter.     Column Row Layer    Maximum-Head-Change  Column Row Layer    Maximum-Flux-Residual          L2-NORM 
          0                 1           2             2    1     1       0.1842154773E-02       2    1    1         0.9573150746E-01      0.1570431468E+00
          0                 2           2             2    1     1      -0.1791915990E-03       2    1    1        -0.9573162184E-02      0.1570431976E-01
          0                 3           1             2    1     1       0.1220228126E-04       2    1    1         0.6701215329E-03      0.1099303091E-02

    ------------------------------------------------
       NWT REQUIRED            3 OUTER ITERATIONS 
       AND A TOTAL OF          5 INNER ITERATIONS.
    ------------------------------------------------

 NO OUTPUT CONTROL FOR STRESS PERIOD   22   TIME STEP   15
 
 SOLVING FOR HEAD 
                                                   Max.-Head-Change                         Max.-Flux-Residual
  Residual-Control   Outer-Iter.   Inner-Iter.     Column Row Layer    Maximum-Head-Change  Column Row Layer    Maximum-Flux-Residual          L2-NORM 
          0                 1           2             2    1     1       0.1838294425E-02       2    1    1         0.9552999656E-01      0.1557230134E+00
          0                 2           2             2    1     1      -0.1788160909E-03       2    1    1        -0.9553010995E-02      0.1557230281E-01
          0                 3           1             2    1     1       0.1217671061E-04       2    1    1         0.6687109523E-03      0.1090063339E-02

    ------------------------------------------------
       NWT REQUIRED            3 OUTER ITERATIONS 
       AND A TOTAL OF          5 INNER ITERATIONS.
    ------------------------------------------------

 NO OUTPUT CONTROL FOR STRESS PERIOD   22   TIME STEP   16
 
 SOLVING FOR HEAD 
                                                   Max.-Head-Change                         Max.-Flux-Residual
  Residual-Control   Outer-Iter.   Inner-Iter.     Column Row Layer    Maximum-Head-Change  Column Row Layer    Maximum-Flux-Residual          L2-NORM 
          0                 1           2             2    1     1       0.1834438462E-02       2    1    1         0.9532872459E-01      0.1544415045E+00
          0                 2           2             2    1     1      -0.1784410095E-03       2    1    1        -0.9532883712E-02      0.1544415758E-01
          0                 3           1             2    1     1       0.1215116883E-04       2    1    1         0.6673020345E-03      0.1081095268E-02

    ------------------------------------------------
       NWT REQUIRED            3 OUTER ITERATIONS 
       AND A TOTAL OF          5 INNER ITERATIONS.
    ------------------------------------------------

 NO OUTPUT CONTROL FOR STRESS PERIOD   22   TIME STEP   17
 
 SOLVING FOR HEAD 
                                                   Max.-Head-Change                         Max.-Flux-Residual
  Residual-Control   Outer-Iter.   Inner-Iter.     Column Row Layer    Maximum-Head-Change  Column Row Layer    Maximum-Flux-Residual          L2-NORM 
          0                 1           2             2    1     1       0.1830629711E-02       2    1    1         0.9512991379E-01      0.1531990917E+00
          0                 2           2             2    1     1      -0.1780705206E-03       2    1    1        -0.9513002532E-02      0.1531991214E-01
          0                 3           1             2    1     1       0.1212594040E-04       2    1    1         0.6659103688E-03      0.1072395963E-02

    ------------------------------------------------
       NWT REQUIRED            3 OUTER ITERATIONS 
       AND A TOTAL OF          5 INNER ITERATIONS.
    ------------------------------------------------

 NO OUTPUT CONTROL FOR STRESS PERIOD   22   TIME STEP   18
 
 SOLVING FOR HEAD 
                                                   Max.-Head-Change                         Max.-Flux-Residual
  Residual-Control   Outer-Iter.   Inner-Iter.     Column Row Layer    Maximum-Head-Change  Column Row Layer    Maximum-Flux-Residual          L2-NORM 
          0                 1           2             2    1     1       0.1826846238E-02       2    1    1         0.9493243404E-01      0.1519961118E+00
          0                 2           2             2    1     1      -0.1777024908E-03       2    1    1        -0.9493254487E-02      0.1519961052E-01
          0                 3           1             2    1     1       0.1210087860E-04       2    1    1         0.6645279949E-03      0.1063973496E-02

    ------------------------------------------------
       NWT REQUIRED            3 OUTER ITERATIONS 
       AND A TOTAL OF          5 INNER ITERATIONS.
    ------------------------------------------------

 NO OUTPUT CONTROL FOR STRESS PERIOD   22   TIME STEP   19
 
 SOLVING FOR HEAD 
                                                   Max.-Head-Change                         Max.-Flux-Residual
  Residual-Control   Outer-Iter.   Inner-Iter.     Column Row Layer    Maximum-Head-Change  Column Row Layer    Maximum-Flux-Residual          L2-NORM 
          0                 1           2             2    1     1       0.1823066355E-02       2    1    1         0.9473514775E-01      0.1508351043E+00
          0                 2           2             2    1     1      -0.1773348100E-03       2    1    1        -0.9473525774E-02      0.1508351542E-01
          0                 3           1             2    1     1       0.1207584117E-04       2    1    1         0.6631469889E-03      0.1055847683E-02

    ------------------------------------------------
       NWT REQUIRED            3 OUTER ITERATIONS 
       AND A TOTAL OF          5 INNER ITERATIONS.
    ------------------------------------------------

 NO OUTPUT CONTROL FOR STRESS PERIOD   22   TIME STEP   20
 
 SOLVING FOR HEAD 
                                                   Max.-Head-Change                         Max.-Flux-Residual
  Residual-Control   Outer-Iter.   Inner-Iter.     Column Row Layer    Maximum-Head-Change  Column Row Layer    Maximum-Flux-Residual          L2-NORM 
          0                 1           2             2    1     1       0.1819332714E-02       2    1    1         0.9454028183E-01      0.1497089967E+00
          0                 2           2             2    1     1      -0.1769716269E-03       2    1    1        -0.9454039095E-02      0.1497089958E-01
          0                 3           1             2    1     1       0.1205110952E-04       2    1    1         0.6617829049E-03      0.1047963677E-02

    ------------------------------------------------
       NWT REQUIRED            3 OUTER ITERATIONS 
       AND A TOTAL OF          5 INNER ITERATIONS.
    ------------------------------------------------

 NO OUTPUT CONTROL FOR STRESS PERIOD   22   TIME STEP   21
 
 SOLVING FOR HEAD 
                                                   Max.-Head-Change                         Max.-Flux-Residual
  Residual-Control   Outer-Iter.   Inner-Iter.     Column Row Layer    Maximum-Head-Change  Column Row Layer    Maximum-Flux-Residual          L2-NORM 
          0                 1           2             2    1     1       0.1815602063E-02       2    1    1         0.9434557921E-01      0.1486118499E+00
          0                 2           2             2    1     1      -0.1766087351E-03       2    1    1        -0.9434568738E-02      0.1486118692E-01
          0                 3           1             2    1     1       0.1202639823E-04       2    1    1         0.6604200019E-03      0.1040293874E-02

    ------------------------------------------------
       NWT REQUIRED            3 OUTER ITERATIONS 
       AND A TOTAL OF          5 INNER ITERATIONS.
    ------------------------------------------------

 NO OUTPUT CONTROL FOR STRESS PERIOD   22   TIME STEP   22
 
 SOLVING FOR HEAD 
                                                   Max.-Head-Change                         Max.-Flux-Residual
  Residual-Control   Outer-Iter.   Inner-Iter.     Column Row Layer    Maximum-Head-Change  Column Row Layer    Maximum-Flux-Residual          L2-NORM 
          0                 1           2             2    1     1       0.1811917191E-02       2    1    1         0.9415326598E-01      0.1475456945E+00
          0                 2           2             2    1     1      -0.1762502959E-03       2    1    1        -0.9415337331E-02      0.1475457866E-01
          0                 3           1             2    1     1       0.1200198964E-04       2    1    1         0.6590737853E-03      0.1032819165E-02

    ------------------------------------------------
       NWT REQUIRED            3 OUTER ITERATIONS 
       AND A TOTAL OF          5 INNER ITERATIONS.
    ------------------------------------------------

 NO OUTPUT CONTROL FOR STRESS PERIOD   22   TIME STEP   23
 
 SOLVING FOR HEAD 
                                                   Max.-Head-Change                         Max.-Flux-Residual
  Residual-Control   Outer-Iter.   Inner-Iter.     Column Row Layer    Maximum-Head-Change  Column Row Layer    Maximum-Flux-Residual          L2-NORM 
          0                 1           2             2    1     1       0.1808234779E-02       2    1    1         0.9396109187E-01      0.1465157431E+00
          0                 2           2             2    1     1      -0.1758920966E-03       2    1    1        -0.9396119826E-02      0.1465157141E-01
          0                 3           1             2    1     1       0.1197759809E-04       2    1    1         0.6577285865E-03      0.1025610933E-02

    ------------------------------------------------
       NWT REQUIRED            3 OUTER ITERATIONS 
       AND A TOTAL OF          5 INNER ITERATIONS.
    ------------------------------------------------

 NO OUTPUT CONTROL FOR STRESS PERIOD   22   TIME STEP   24
 
 SOLVING FOR HEAD 
                                                   Max.-Head-Change                         Max.-Flux-Residual
  Residual-Control   Outer-Iter.   Inner-Iter.     Column Row Layer    Maximum-Head-Change  Column Row Layer    Maximum-Flux-Residual          L2-NORM 
          0                 1           2             2    1     1       0.1804597603E-02       2    1    1         0.9377127996E-01      0.1455187445E+00
          0                 2           2             2    1     1      -0.1755382977E-03       2    1    1        -0.9377138578E-02      0.1455187977E-01
          0                 3           1             2    1     1       0.1195350570E-04       2    1    1         0.6563998995E-03      0.1018631338E-02

    ------------------------------------------------
       NWT REQUIRED            3 OUTER ITERATIONS 
       AND A TOTAL OF          5 INNER ITERATIONS.
    ------------------------------------------------

 NO OUTPUT CONTROL FOR STRESS PERIOD   22   TIME STEP   25
 
 SOLVING FOR HEAD 
                                                   Max.-Head-Change                         Max.-Flux-Residual
  Residual-Control   Outer-Iter.   Inner-Iter.     Column Row Layer    Maximum-Head-Change  Column Row Layer    Maximum-Flux-Residual          L2-NORM 
          0                 1           2             2    1     1       0.1800962344E-02       2    1    1         0.9358157869E-01      0.1445462819E+00
          0                 2           2             2    1     1      -0.1751846844E-03       2    1    1        -0.9358168361E-02      0.1445462555E-01
          0                 3           1             2    1     1       0.1192942562E-04       2    1    1         0.6550719581E-03      0.1011825762E-02

    ------------------------------------------------
       NWT REQUIRED            3 OUTER ITERATIONS 
       AND A TOTAL OF          5 INNER ITERATIONS.
    ------------------------------------------------

 NO OUTPUT CONTROL FOR STRESS PERIOD   22   TIME STEP   26
 
 SOLVING FOR HEAD 
                                                   Max.-Head-Change                         Max.-Flux-Residual
  Residual-Control   Outer-Iter.   Inner-Iter.     Column Row Layer    Maximum-Head-Change  Column Row Layer    Maximum-Flux-Residual          L2-NORM 
          0                 1           2             2    1     1       0.1797371792E-02       2    1    1         0.9339421175E-01      0.1436007834E+00
          0                 2           2             2    1     1      -0.1748354205E-03       2    1    1        -0.9339431594E-02      0.1436008275E-01
          0                 3           1             2    1     1       0.1190564208E-04       2    1    1         0.6537603875E-03      0.1005206367E-02

    ------------------------------------------------
       NWT REQUIRED            3 OUTER ITERATIONS 
       AND A TOTAL OF          5 INNER ITERATIONS.
    ------------------------------------------------

 NO OUTPUT CONTROL FOR STRESS PERIOD   22   TIME STEP   27
 
 SOLVING FOR HEAD 
                                                   Max.-Head-Change                         Max.-Flux-Residual
  Residual-Control   Outer-Iter.   Inner-Iter.     Column Row Layer    Maximum-Head-Change  Column Row Layer    Maximum-Flux-Residual          L2-NORM 
          0                 1           2             2    1     1       0.1793782730E-02       2    1    1         0.9320692775E-01      0.1426823257E+00
          0                 2           2             2    1     1      -0.1744863015E-03       2    1    1        -0.9320703119E-02      0.1426823140E-01
          0                 3           1             2    1     1       0.1188186873E-04       2    1    1         0.6524494016E-03      0.9987840705E-03

    ------------------------------------------------
       NWT REQUIRED            3 OUTER ITERATIONS 
       AND A TOTAL OF          5 INNER ITERATIONS.
    ------------------------------------------------

 NO OUTPUT CONTROL FOR STRESS PERIOD   22   TIME STEP   28
 
 SOLVING FOR HEAD 
                                                   Max.-Head-Change                         Max.-Flux-Residual
  Residual-Control   Outer-Iter.   Inner-Iter.     Column Row Layer    Maximum-Head-Change  Column Row Layer    Maximum-Flux-Residual          L2-NORM 
          0                 1           2             2    1     1       0.1790237859E-02       2    1    1         0.9302195617E-01      0.1417950330E+00
          0                 2           2             2    1     1      -0.1741414810E-03       2    1    1        -0.9302205876E-02      0.1417950724E-01
          0                 3           1             2    1     1       0.1185838766E-04       2    1    1         0.6511545952E-03      0.9925659054E-03

    ------------------------------------------------
       NWT REQUIRED            3 OUTER ITERATIONS 
       AND A TOTAL OF          5 INNER ITERATIONS.
    ------------------------------------------------

 NO OUTPUT CONTROL FOR STRESS PERIOD   22   TIME STEP   29
 
 SOLVING FOR HEAD 
                                                   Max.-Head-Change                         Max.-Flux-Residual
  Residual-Control   Outer-Iter.   Inner-Iter.     Column Row Layer    Maximum-Head-Change  Column Row Layer    Maximum-Flux-Residual          L2-NORM 
          0                 1           2             2    1     1       0.1786533255E-02       2    1    1         0.9283704062E-01      0.1423752250E+00
          0                 2           2             2    1     1      -0.1737811271E-03       2    1    1        -0.9283714521E-02      0.1423752229E-01
          0                 3           1             2    1     1       0.1183384866E-04       2    1    1         0.6498601973E-03      0.9966256305E-03

    ------------------------------------------------
       NWT REQUIRED            3 OUTER ITERATIONS 
       AND A TOTAL OF          5 INNER ITERATIONS.
    ------------------------------------------------

 NO OUTPUT CONTROL FOR STRESS PERIOD   22   TIME STEP   30



 STREAM LISTING     PERIOD     22   STEP       30

 LAYER ROW COL. STREAM  RCH.  FLOW INTO     FLOW TO   FLOW OUT OF   OVRLND.     DIRECT     STREAM       STREAM     STREAM     STREAM   STREAMBED  STREAMBED
                SEG.NO.  NO.  STRM. RCH.    AQUIFER    STRM. RCH.    RUNOFF     PRECIP       ET          HEAD       DEPTH      WIDTH   CONDCTNC.   GRADIENT

   1    1    1     1     1    1.8324E+01  2.0985E-01   1.8114E+01  0.000E+00  0.000E+00  0.000E+00  1.09412E+03  1.071E+00  1.146E+01  5.155E-02  1.357E+00
   1    2    2     1     2    1.8114E+01  3.2368E-01   1.7790E+01  0.000E+00  0.000E+00  0.000E+00  1.08912E+03  1.066E+00  1.137E+01  7.960E-02  1.355E+00
   1    3    3     1     3    1.7790E+01  2.7478E-01   1.7515E+01  0.000E+00  0.000E+00  0.000E+00  1.08348E+03  1.061E+00  1.128E+01  6.766E-02  1.354E+00
   1    3    4     1     4    1.7515E+01  2.5199E-01   1.7263E+01  0.000E+00  0.000E+00  0.000E+00  1.07846E+03  1.056E+00  1.119E+01  6.212E-02  1.352E+00
   1    4    5     2     1    1.5263E+01  3.0363E-01   1.4960E+01  0.000E+00  0.000E+00  0.000E+00  1.07283E+03  8.927E-01  1.200E+01  7.800E-02  1.298E+00
   1    5    6     2     2    1.4960E+01  2.3299E-01   1.4727E+01  0.000E+00  0.000E+00  0.000E+00  1.06739E+03  8.832E-01  1.200E+01  6.000E-02  1.294E+00
   1    6    6     2     3    1.4727E+01  2.3249E-01   1.4494E+01  0.000E+00  0.000E+00  0.000E+00  1.06267E+03  8.749E-01  1.200E+01  6.000E-02  1.292E+00
   1    7    6     2     4    1.4494E+01  2.3199E-01   1.4262E+01  0.000E+00  0.000E+00  0.000E+00  1.05794E+03  8.665E-01  1.200E+01  6.000E-02  1.289E+00
   1    8    6     2     5    1.4262E+01  2.3149E-01   1.4031E+01  0.000E+00  0.000E+00  0.000E+00  1.05322E+03  8.581E-01  1.200E+01  6.000E-02  1.286E+00
   1    3    5     3     1    2.0000E+00  2.8252E-01   1.7175E+00  0.000E+00  0.000E+00  0.000E+00  1.07555E+03  1.909E+00  9.636E+00  7.227E-02  1.955E+00
   1    3    6     3     2    1.7175E+00  2.4905E-01   1.4684E+00  0.000E+00  0.000E+00  0.000E+00  1.07264E+03  1.727E+00  8.909E+00  6.682E-02  1.864E+00
   1    3    7     3     3    1.4684E+00  1.9718E-01   1.2712E+00  0.000E+00  0.000E+00  0.000E+00  1.06987E+03  1.555E+00  8.218E+00  5.547E-02  1.777E+00
   1    4    8     3     4    1.2712E+00  2.2567E-01   1.0456E+00  0.000E+00  0.000E+00  0.000E+00  1.06682E+03  1.364E+00  7.455E+00  6.709E-02  1.682E+00
   1    5    8     3     5    1.0456E+00  1.5790E-01   8.8768E-01  0.000E+00  0.000E+00  0.000E+00  1.06362E+03  1.164E+00  6.655E+00  4.991E-02  1.582E+00
   1    6    8     3     6    8.8768E-01  5.5980E-02   8.3170E-01  0.000E+00  0.000E+00  0.000E+00  1.06158E+03  1.036E+00  6.145E+00  1.844E-02  1.518E+00
   1    5   10     4     1    1.0000E+01  9.0919E-02   9.9091E+00  0.000E+00  0.000E+00  0.000E+00  1.07836E+03  6.368E-01  1.000E+01  2.500E-02  1.212E+00
   1    5    9     4     2    9.9091E+00  1.8158E-01   9.7275E+00  0.000E+00  0.000E+00  0.000E+00  1.07154E+03  6.315E-01  1.000E+01  5.000E-02  1.211E+00
   1    6    8     4     3    9.7275E+00  1.2689E-01   9.6006E+00  0.000E+00  0.000E+00  0.000E+00  1.06381E+03  6.256E-01  1.000E+01  3.500E-02  1.209E+00
   1    6    8     5     1    1.0432E+01  2.2686E-01   1.0205E+01  0.000E+00  0.000E+00  0.000E+00  1.05868E+03  6.790E-01  1.542E+01  6.166E-02  1.226E+00
   1    7    7     5     2    1.0205E+01  2.7894E-01   9.9265E+00  0.000E+00  0.000E+00  0.000E+00  1.05417E+03  6.732E-01  1.519E+01  7.594E-02  1.224E+00
   1    8    7     5     3    9.9265E+00  1.9221E-01   9.7343E+00  0.000E+00  0.000E+00  0.000E+00  1.04992E+03  6.676E-01  1.497E+01  5.241E-02  1.223E+00
   1    8    6     5     4    9.7343E+00  1.3577E-01   9.5985E+00  0.000E+00  0.000E+00  0.000E+00  1.04691E+03  6.637E-01  1.482E+01  3.706E-02  1.221E+00
   1    9    6     6     1    9.5985E+00  2.2097E-01   9.3776E+00  0.000E+00  0.000E+00  0.000E+00  1.04341E+03  6.828E-01  1.200E+01  6.000E-02  1.228E+00
   1   10    7     6     2    9.3776E+00  2.2039E-01   9.1572E+00  0.000E+00  0.000E+00  0.000E+00  1.03885E+03  6.732E-01  1.200E+01  6.000E-02  1.224E+00
   1   11    7     6     3    9.1572E+00  2.1981E-01   8.9374E+00  0.000E+00  0.000E+00  0.000E+00  1.03430E+03  6.636E-01  1.200E+01  6.000E-02  1.221E+00
   1   12    7     6     4    8.9374E+00  2.1923E-01   8.7181E+00  0.000E+00  0.000E+00  0.000E+00  1.02974E+03  6.539E-01  1.200E+01  6.000E-02  1.218E+00
   1   13    7     6     5    8.7181E+00 -1.1093E-01   8.8291E+00  0.000E+00  0.000E+00  0.000E+00  1.02656E+03  6.514E-01  1.200E+01  2.400E-01 -1.541E-01
   1   14    9     7     1    1.5000E+02  1.3430E+00   1.4866E+02  0.000E+00  0.000E+00  0.000E+00  1.03987E+03  2.288E+00  5.529E+01  5.593E-01  8.004E-01
   1   13    8     7     2    1.4866E+02  1.8480E+00   1.4681E+02  0.000E+00  0.000E+00  0.000E+00  1.03478E+03  2.279E+00  5.526E+01  6.148E-01  1.002E+00
   1   13    7     7     3    1.4681E+02  1.4893E+00   1.4532E+02  0.000E+00  0.000E+00  0.000E+00  1.02969E+03  2.270E+00  5.522E+01  5.584E-01  8.890E-01
   1   13    6     8     1    1.5415E+02  8.4123E-01   1.5331E+02  0.000E+00  0.000E+00  0.000E+00  1.02472E+03  2.843E+00  4.122E+01  4.201E-01  6.675E-01
   1   13    5     8     2    1.5331E+02  1.1122E-01   1.5320E+02  0.000E+00  0.000E+00  0.000E+00  1.01846E+03  2.840E+00  4.117E+01  4.196E-01  8.836E-02
   1   13    4     8     3    1.5320E+02 -2.6429E+00   1.5584E+02  0.000E+00  0.000E+00  0.000E+00  1.01222E+03  2.848E+00  4.130E+01  4.209E+00 -2.093E-01
   1   13    3     8     4    1.5584E+02 -3.7305E+00   1.5957E+02  0.000E+00  0.000E+00  0.000E+00  1.00600E+03  2.870E+00  4.162E+01  4.241E+00 -2.932E-01
   1   13    2     8     5    1.5957E+02 -2.5947E+00   1.6216E+02  0.000E+00  0.000E+00  0.000E+00  9.99767E+02  2.892E+00  4.193E+01  4.273E+00 -2.024E-01
   1   13    1     8     6    1.6216E+02 -1.9797E+00   1.6414E+02  0.000E+00  0.000E+00  0.000E+00  9.94782E+02  2.907E+00  4.215E+01  2.577E+00 -2.560E-01
   1    8    6     9     1    1.4031E+01  0.0000E+00   1.4031E+01  0.000E+00  0.000E+00  0.000E+00  1.08153E+03  2.777E+00  4.000E+00  0.000E+00  1.926E+00
   1    8    5     9     2    1.4031E+01  0.0000E+00   1.4031E+01  0.000E+00  0.000E+00  0.000E+00  1.08103E+03  2.777E+00  4.000E+00  0.000E+00  1.926E+00





UNSATURATED ZONE PACKAGE VOLUMETRIC BUDGET FOR  TIME STEP    30 STRESS PERIOD   22
  ------------------------------------------------------------------------------



     CUMULATIVE VOLUMES      L**3       RATES FOR THIS TIME STEP      L**3/T
     ------------------                 ------------------------

           IN:                                      IN:
           ---                                      ---
        INFILTRATION =    46880646.3276          INFILTRATION =           0.8475

          OUT:                                     OUT:
          ----                                     ----
              UZF ET =    46135728.5569                UZF ET =           0.8475
        UZF RECHARGE =       73224.0000          UZF RECHARGE =       0.0000E+00

            IN - OUT =      671693.7707              IN - OUT =       0.0000E+00

          STORAGE:                                 STORAGE:
          --------                                 --------
      STORAGE CHANGE =      671693.9465        STORAGE CHANGE =       2.7389E-15

 PERCENT DISCREPANCY IS DIFFERENCE BETWEEN IN-OUT MINUS CHANGE IN STORAGE
 DIVIDED BY THE AVERAGE OF IN AND OUT TIMES 100

 PERCENT DISCREPANCY =           0.00     PERCENT DISCREPANCY =           0.00






1
  VOLUMETRIC BUDGET FOR ENTIRE MODEL AT END OF TIME STEP   30, STRESS PERIOD  22
  ------------------------------------------------------------------------------

     CUMULATIVE VOLUMES      L**3       RATES FOR THIS TIME STEP      L**3/T
     ------------------                 ------------------------

           IN:                                      IN:
           ---                                      ---
             STORAGE     =    22034716.0000               STORAGE     =           0.2863
       CONSTANT HEAD     =           0.0000         CONSTANT HEAD     =           0.0000
     HEAD DEP BOUNDS     =    15820668.0000       HEAD DEP BOUNDS     =           0.2863
      STREAM LEAKAGE     =   650695040.0000        STREAM LEAKAGE     =          11.2076
        UZF RECHARGE     =       73223.9531          UZF RECHARGE     =           0.0000
               GW ET     =           0.0000                 GW ET     =           0.0000
     SURFACE LEAKAGE     =           0.0000       SURFACE LEAKAGE     =           0.0000

                TOTAL IN =   688623616.0000                  TOTAL IN =          11.7801

          OUT:                                     OUT:
          ----                                     ----
             STORAGE     =    59526936.0000               STORAGE     =           0.4345
       CONSTANT HEAD     =           0.0000         CONSTANT HEAD     =           0.0000
     HEAD DEP BOUNDS     =    15871996.0000       HEAD DEP BOUNDS     =           0.2869
      STREAM LEAKAGE     =   613235072.0000        STREAM LEAKAGE     =          11.0587
        UZF RECHARGE     =           0.0000          UZF RECHARGE     =           0.0000
               GW ET     =           0.0000                 GW ET     =           0.0000
     SURFACE LEAKAGE     =           0.0000       SURFACE LEAKAGE     =           0.0000

               TOTAL OUT =   688633984.0000                 TOTAL OUT =          11.7802

                IN - OUT =      -10368.0000                  IN - OUT =      -3.9101E-05

     PERCENT DISCREPANCY =          -0.00         PERCENT DISCREPANCY =          -0.00






         TIME SUMMARY AT END OF TIME STEP   30 IN STRESS PERIOD   22
                    SECONDS     MINUTES      HOURS       DAYS        YEARS
                    -----------------------------------------------------------
   TIME STEP LENGTH  87667.      1461.1      24.352      1.0147     2.77799E-03
 STRESS PERIOD TIME 2.63000E+06  43833.      730.56      30.440     8.33397E-02
         TOTAL TIME 5.53166E+07 9.21944E+05  15366.      640.24      1.7529    
1
1
                            STRESS PERIOD NO.   23, LENGTH =   2630000.    
                            -----------------------------------------------

                              NUMBER OF TIME STEPS =    30

                               MULTIPLIER FOR DELT =     1.000

                            INITIAL TIME STEP SIZE =   87666.66    

 REUSING NON-PARAMETER GHB CELLS FROM LAST STRESS PERIOD

      2 GHB CELLS

 REUSING STREAM SEGMENT DATA FROM LAST STRESS PERIOD



            AREAL INFILTRATION RATE
 READING ON UNIT   19 WITH FORMAT: (FREE)              

            1           2           3           4           5           6           7           8           9          10
 ........................................................................................................................
   1   1.0000E-10  2.0000E-10   0.000       0.000       0.000       0.000       0.000       0.000       0.000       0.000    
   2   2.0000E-10  1.0000E-10  2.0000E-10   0.000       0.000      8.0000E-10  8.0000E-10  5.0000E-10   0.000       0.000    
   3    0.000      5.0000E-10  1.0000E-10  1.0000E-10  8.0000E-10  8.0000E-10  5.0000E-10  5.0000E-10   0.000       0.000    
   4   8.0000E-10  5.0000E-10  1.0000E-10  1.0000E-10  1.0000E-10  1.0000E-10  1.0000E-10  1.0000E-10  2.0000E-10   0.000    
   5   8.0000E-10  5.0000E-10  1.0000E-10  1.0000E-10  1.0000E-10  1.0000E-10  1.0000E-10  1.0000E-10  1.0000E-10  1.0000E-10
   6   8.0000E-10  5.0000E-10  5.0000E-10  2.0000E-10  2.0000E-10  1.0000E-10  1.0000E-10  1.0000E-10  1.0000E-10  5.0000E-10
   7   8.0000E-10  5.0000E-10  5.0000E-10  2.0000E-10  2.0000E-10  1.0000E-10  1.0000E-10  2.0000E-10  2.0000E-10   0.000    
   8    0.000      5.0000E-10  5.0000E-10  2.0000E-10  2.0000E-10  1.0000E-10  1.0000E-10  2.0000E-10  5.0000E-10   0.000    
   9    0.000      5.0000E-10  5.0000E-10  2.0000E-10  2.0000E-10  1.0000E-10  1.0000E-10  2.0000E-10  5.0000E-10   0.000    
  10    0.000      5.0000E-10  5.0000E-10  2.0000E-10  2.0000E-10  1.0000E-10  1.0000E-10  2.0000E-10  5.0000E-10  8.0000E-10
  11    0.000      1.0000E-10  1.0000E-10  1.0000E-10  1.0000E-10  1.0000E-10  1.0000E-10  2.0000E-10  5.0000E-10   0.000    
  12   1.0000E-10  1.0000E-10  1.0000E-10  1.0000E-10  1.0000E-10  1.0000E-10  1.0000E-10  1.0000E-10  2.0000E-10   0.000    
  13   1.0000E-10  1.0000E-10  2.0000E-10  2.0000E-10  2.0000E-10  2.0000E-10  2.0000E-10  1.0000E-10  1.0000E-10   0.000    
  14    0.000      2.0000E-10  5.0000E-10  5.0000E-10  5.0000E-10  5.0000E-10  5.0000E-10  2.0000E-10  1.0000E-10   0.000    
  15    0.000       0.000      8.0000E-10  8.0000E-10  8.0000E-10  8.0000E-10   0.000       0.000       0.000       0.000    

                  ET RATE =  5.000000E-09

 USING ET EXTINCTION DEPTH FROM PREVIOUS STRESS PERIOD. CURRENT PERIOD IS:      23

 USING EXTINCTION WATER CONTENT FROM PREVIOUS STRESS PERIOD. CURRENT PERIOD IS:      23

 USING AIR ENTRY PRESSURE FROM PREVIOUS STRESS PERIOD. CURRENT PERIOD IS:      23

 USING ROOT PRESSURE HEAD FROM PREVIOUS STRESS PERIOD. CURRENT PERIOD IS:      23

 USING ROOT ACTIVITY FROM PREVIOUS STRESS PERIOD. CURRENT PERIOD IS:      23
 
 SOLVING FOR HEAD 
                                                   Max.-Head-Change                         Max.-Flux-Residual
  Residual-Control   Outer-Iter.   Inner-Iter.     Column Row Layer    Maximum-Head-Change  Column Row Layer    Maximum-Flux-Residual          L2-NORM 
          0                 1           2             2    1     1       0.1782147921E-02       2    1    1         0.9264495804E-01      0.1518480527E+00
          0                 2           2             2    1     1      -0.1733545680E-03       2    1    1        -0.9264507208E-02      0.1518480647E-01
          0                 3           1             2    1     1       0.1180480081E-04       2    1    1         0.6485156677E-03      0.1062937097E-02

    ------------------------------------------------
       NWT REQUIRED            3 OUTER ITERATIONS 
       AND A TOTAL OF          5 INNER ITERATIONS.
    ------------------------------------------------

 NO OUTPUT CONTROL FOR STRESS PERIOD   23   TIME STEP    1
 
 SOLVING FOR HEAD 
                                                   Max.-Head-Change                         Max.-Flux-Residual
  Residual-Control   Outer-Iter.   Inner-Iter.     Column Row Layer    Maximum-Head-Change  Column Row Layer    Maximum-Flux-Residual          L2-NORM 
          0                 1           2             2    1     1       0.1777790832E-02       2    1    1         0.9241757137E-01      0.1504515768E+00
          0                 2           2             2    1     1      -0.1729307415E-03       2    1    1        -0.9241768478E-02      0.1504516055E-01
          0                 3           1             2    1     1       0.1177594016E-04       2    1    1         0.6469239683E-03      0.1053161037E-02

    ------------------------------------------------
       NWT REQUIRED            3 OUTER ITERATIONS 
       AND A TOTAL OF          5 INNER ITERATIONS.
    ------------------------------------------------

 NO OUTPUT CONTROL FOR STRESS PERIOD   23   TIME STEP    2
 
 SOLVING FOR HEAD 
                                                   Max.-Head-Change                         Max.-Flux-Residual
  Residual-Control   Outer-Iter.   Inner-Iter.     Column Row Layer    Maximum-Head-Change  Column Row Layer    Maximum-Flux-Residual          L2-NORM 
          0                 1           2             2    1     1       0.1773483399E-02       2    1    1         0.9219277846E-01      0.1490942227E+00
          0                 2           2             2    1     1      -0.1725117439E-03       2    1    1        -0.9219289080E-02      0.1490942388E-01
          0                 3           1             2    1     1       0.1174740778E-04       2    1    1         0.6453503993E-03      0.1043658969E-02

    ------------------------------------------------
       NWT REQUIRED            3 OUTER ITERATIONS 
       AND A TOTAL OF          5 INNER ITERATIONS.
    ------------------------------------------------

 NO OUTPUT CONTROL FOR STRESS PERIOD   23   TIME STEP    3
 
 SOLVING FOR HEAD 
                                                   Max.-Head-Change                         Max.-Flux-Residual
  Residual-Control   Outer-Iter.   Inner-Iter.     Column Row Layer    Maximum-Head-Change  Column Row Layer    Maximum-Flux-Residual          L2-NORM 
          0                 1           2             2    1     1       0.1769182344E-02       2    1    1         0.9196832449E-01      0.1477714064E+00
          0                 2           2             2    1     1      -0.1720933674E-03       2    1    1        -0.9196843598E-02      0.1477714231E-01
          0                 3           1             2    1     1       0.1171891847E-04       2    1    1         0.6437792319E-03      0.1034399489E-02

    ------------------------------------------------
       NWT REQUIRED            3 OUTER ITERATIONS 
       AND A TOTAL OF          5 INNER ITERATIONS.
    ------------------------------------------------

 NO OUTPUT CONTROL FOR STRESS PERIOD   23   TIME STEP    4
 
 SOLVING FOR HEAD 
                                                   Max.-Head-Change                         Max.-Flux-Residual
  Residual-Control   Outer-Iter.   Inner-Iter.     Column Row Layer    Maximum-Head-Change  Column Row Layer    Maximum-Flux-Residual          L2-NORM 
          0                 1           2             2    1     1       0.1764908817E-02       2    1    1         0.9174531897E-01      0.1464933185E+00
          0                 2           2             2    1     1      -0.1716776685E-03       2    1    1        -0.9174542959E-02      0.1464933576E-01
          0                 3           1             2    1     1       0.1169061069E-04       2    1    1         0.6422181881E-03      0.1025456080E-02

    ------------------------------------------------
       NWT REQUIRED            3 OUTER ITERATIONS 
       AND A TOTAL OF          5 INNER ITERATIONS.
    ------------------------------------------------

 NO OUTPUT CONTROL FOR STRESS PERIOD   23   TIME STEP    5
 
 SOLVING FOR HEAD 
                                                   Max.-Head-Change                         Max.-Flux-Residual
  Residual-Control   Outer-Iter.   Inner-Iter.     Column Row Layer    Maximum-Head-Change  Column Row Layer    Maximum-Flux-Residual          L2-NORM 
          0                 1           2             2    1     1       0.1760662617E-02       2    1    1         0.9152374084E-01      0.1452434318E+00
          0                 2           2             2    1     1      -0.1712646270E-03       2    1    1        -0.9152385042E-02      0.1452434368E-01
          0                 3           1             2    1     1       0.1166248396E-04       2    1    1         0.6406671122E-03      0.1016704520E-02

    ------------------------------------------------
       NWT REQUIRED            3 OUTER ITERATIONS 
       AND A TOTAL OF          5 INNER ITERATIONS.
    ------------------------------------------------

 NO OUTPUT CONTROL FOR STRESS PERIOD   23   TIME STEP    6
 
 SOLVING FOR HEAD 
                                                   Max.-Head-Change                         Max.-Flux-Residual
  Residual-Control   Outer-Iter.   Inner-Iter.     Column Row Layer    Maximum-Head-Change  Column Row Layer    Maximum-Flux-Residual          L2-NORM 
          0                 1           2             2    1     1       0.1756443414E-02       2    1    1         0.9130357952E-01      0.1440344008E+00
          0                 2           2             2    1     1      -0.1708542129E-03       2    1    1        -0.9130368842E-02      0.1440344458E-01
          0                 3           1             2    1     1       0.1163453664E-04       2    1    1         0.6391259966E-03      0.1008243170E-02

    ------------------------------------------------
       NWT REQUIRED            3 OUTER ITERATIONS 
       AND A TOTAL OF          5 INNER ITERATIONS.
    ------------------------------------------------

 NO OUTPUT CONTROL FOR STRESS PERIOD   23   TIME STEP    7
 
 SOLVING FOR HEAD 
                                                   Max.-Head-Change                         Max.-Flux-Residual
  Residual-Control   Outer-Iter.   Inner-Iter.     Column Row Layer    Maximum-Head-Change  Column Row Layer    Maximum-Flux-Residual          L2-NORM 
          0                 1           2             2    1     1       0.1752250943E-02       2    1    1         0.9108481802E-01      0.1428542676E+00
          0                 2           2             2    1     1      -0.1704463983E-03       2    1    1        -0.9108492598E-02      0.1428542650E-01
          0                 3           1             2    1     1       0.1160676587E-04       2    1    1         0.6375946504E-03      0.9999804741E-03

    ------------------------------------------------
       NWT REQUIRED            3 OUTER ITERATIONS 
       AND A TOTAL OF          5 INNER ITERATIONS.
    ------------------------------------------------

 NO OUTPUT CONTROL FOR STRESS PERIOD   23   TIME STEP    8
 
 SOLVING FOR HEAD 
                                                   Max.-Head-Change                         Max.-Flux-Residual
  Residual-Control   Outer-Iter.   Inner-Iter.     Column Row Layer    Maximum-Head-Change  Column Row Layer    Maximum-Flux-Residual          L2-NORM 
          0                 1           2             2    1     1       0.1748106426E-02       2    1    1         0.9086856072E-01      0.1417084143E+00
          0                 2           2             2    1     1      -0.1700432481E-03       2    1    1        -0.9086866763E-02      0.1417084722E-01
          0                 3           1             2    1     1       0.1157931271E-04       2    1    1         0.6360808409E-03      0.9919609521E-03

    ------------------------------------------------
       NWT REQUIRED            3 OUTER ITERATIONS 
       AND A TOTAL OF          5 INNER ITERATIONS.
    ------------------------------------------------

 NO OUTPUT CONTROL FOR STRESS PERIOD   23   TIME STEP    9
 
 SOLVING FOR HEAD 
                                                   Max.-Head-Change                         Max.-Flux-Residual
  Residual-Control   Outer-Iter.   Inner-Iter.     Column Row Layer    Maximum-Head-Change  Column Row Layer    Maximum-Flux-Residual          L2-NORM 
          0                 1           2             2    1     1       0.1743966499E-02       2    1    1         0.9065255345E-01      0.1405941074E+00
          0                 2           2             2    1     1      -0.1696405455E-03       2    1    1        -0.9065265975E-02      0.1405940727E-01
          0                 3           1             2    1     1       0.1155189057E-04       2    1    1         0.6345688006E-03      0.9841553457E-03

    ------------------------------------------------
       NWT REQUIRED            3 OUTER ITERATIONS 
       AND A TOTAL OF          5 INNER ITERATIONS.
    ------------------------------------------------

 NO OUTPUT CONTROL FOR STRESS PERIOD   23   TIME STEP   10
 
 SOLVING FOR HEAD 
                                                   Max.-Head-Change                         Max.-Flux-Residual
  Residual-Control   Outer-Iter.   Inner-Iter.     Column Row Layer    Maximum-Head-Change  Column Row Layer    Maximum-Flux-Residual          L2-NORM 
          0                 1           2             2    1     1       0.1739852444E-02       2    1    1         0.9043790229E-01      0.1395098946E+00
          0                 2           2             2    1     1      -0.1692403585E-03       2    1    1        -0.9043800769E-02      0.1395099275E-01
          0                 3           1             2    1     1       0.1152463906E-04       2    1    1         0.6330662244E-03      0.9765699581E-03

    ------------------------------------------------
       NWT REQUIRED            3 OUTER ITERATIONS 
       AND A TOTAL OF          5 INNER ITERATIONS.
    ------------------------------------------------

 NO OUTPUT CONTROL FOR STRESS PERIOD   23   TIME STEP   11
 
 SOLVING FOR HEAD 
                                                   Max.-Head-Change                         Max.-Flux-Residual
  Residual-Control   Outer-Iter.   Inner-Iter.     Column Row Layer    Maximum-Head-Change  Column Row Layer    Maximum-Flux-Residual          L2-NORM 
          0                 1           2             2    1     1       0.1735763983E-02       2    1    1         0.9022459259E-01      0.1384505633E+00
          0                 2           2             2    1     1      -0.1688426618E-03       2    1    1        -0.9022469733E-02      0.1384505690E-01
          0                 3           1             2    1     1       0.1149755748E-04       2    1    1         0.6315730595E-03      0.9691529642E-03

    ------------------------------------------------
       NWT REQUIRED            3 OUTER ITERATIONS 
       AND A TOTAL OF          5 INNER ITERATIONS.
    ------------------------------------------------

 NO OUTPUT CONTROL FOR STRESS PERIOD   23   TIME STEP   12
 
 SOLVING FOR HEAD 
                                                   Max.-Head-Change                         Max.-Flux-Residual
  Residual-Control   Outer-Iter.   Inner-Iter.     Column Row Layer    Maximum-Head-Change  Column Row Layer    Maximum-Flux-Residual          L2-NORM 
          0                 1           2             2    1     1       0.1731679423E-02       2    1    1         0.9001149153E-01      0.1374194767E+00
          0                 2           2             2    1     1      -0.1684453442E-03       2    1    1        -0.9001159538E-02      0.1374194818E-01
          0                 3           1             2    1     1       0.1147050147E-04       2    1    1         0.6300813427E-03      0.9619373487E-03

    ------------------------------------------------
       NWT REQUIRED            3 OUTER ITERATIONS 
       AND A TOTAL OF          5 INNER ITERATIONS.
    ------------------------------------------------

 NO OUTPUT CONTROL FOR STRESS PERIOD   23   TIME STEP   13
 
 SOLVING FOR HEAD 
                                                   Max.-Head-Change                         Max.-Flux-Residual
  Residual-Control   Outer-Iter.   Inner-Iter.     Column Row Layer    Maximum-Head-Change  Column Row Layer    Maximum-Flux-Residual          L2-NORM 
          0                 1           2             2    1     1       0.1727641482E-02       2    1    1         0.8980082950E-01      0.1364181954E+00
          0                 2           2             2    1     1      -0.1680525611E-03       2    1    1        -0.8980093242E-02      0.1364182233E-01
          0                 3           1             2    1     1       0.1144375455E-04       2    1    1         0.6286067057E-03      0.9549270483E-03

    ------------------------------------------------
       NWT REQUIRED            3 OUTER ITERATIONS 
       AND A TOTAL OF          5 INNER ITERATIONS.
    ------------------------------------------------

 NO OUTPUT CONTROL FOR STRESS PERIOD   23   TIME STEP   14
 
 SOLVING FOR HEAD 
                                                   Max.-Head-Change                         Max.-Flux-Residual
  Residual-Control   Outer-Iter.   Inner-Iter.     Column Row Layer    Maximum-Head-Change  Column Row Layer    Maximum-Flux-Residual          L2-NORM 
          0                 1           2             2    1     1       0.1723628421E-02       2    1    1         0.8959146622E-01      0.1354375040E+00
          0                 2           2             2    1     1      -0.1676621989E-03       2    1    1        -0.8959156855E-02      0.1354374650E-01
          0                 3           1             2    1     1       0.1141717283E-04       2    1    1         0.6271411623E-03      0.9480588804E-03

    ------------------------------------------------
       NWT REQUIRED            3 OUTER ITERATIONS 
       AND A TOTAL OF          5 INNER ITERATIONS.
    ------------------------------------------------

 NO OUTPUT CONTROL FOR STRESS PERIOD   23   TIME STEP   15
 
 SOLVING FOR HEAD 
                                                   Max.-Head-Change                         Max.-Flux-Residual
  Residual-Control   Outer-Iter.   Inner-Iter.     Column Row Layer    Maximum-Head-Change  Column Row Layer    Maximum-Flux-Residual          L2-NORM 
          0                 1           2             2    1     1       0.1719639877E-02       2    1    1         0.8938339295E-01      0.1344861186E+00
          0                 2           2             2    1     1      -0.1672742207E-03       2    1    1        -0.8938349427E-02      0.1344861239E-01
          0                 3           1             2    1     1       0.1139075252E-04       2    1    1         0.6256846425E-03      0.9414033272E-03

    ------------------------------------------------
       NWT REQUIRED            3 OUTER ITERATIONS 
       AND A TOTAL OF          5 INNER ITERATIONS.
    ------------------------------------------------

 NO OUTPUT CONTROL FOR STRESS PERIOD   23   TIME STEP   16
 
 SOLVING FOR HEAD 
                                                   Max.-Head-Change                         Max.-Flux-Residual
  Residual-Control   Outer-Iter.   Inner-Iter.     Column Row Layer    Maximum-Head-Change  Column Row Layer    Maximum-Flux-Residual          L2-NORM 
          0                 1           2             2    1     1       0.1715675691E-02       2    1    1         0.8917659091E-01      0.1335579863E+00
          0                 2           2             2    1     1      -0.1668886123E-03       2    1    1        -0.8917669151E-02      0.1335579707E-01
          0                 3           1             2    1     1       0.1136449409E-04       2    1    1         0.6242370126E-03      0.9349045410E-03

    ------------------------------------------------
       NWT REQUIRED            3 OUTER ITERATIONS 
       AND A TOTAL OF          5 INNER ITERATIONS.
    ------------------------------------------------

 NO OUTPUT CONTROL FOR STRESS PERIOD   23   TIME STEP   17
 
 SOLVING FOR HEAD 
                                                   Max.-Head-Change                         Max.-Flux-Residual
  Residual-Control   Outer-Iter.   Inner-Iter.     Column Row Layer    Maximum-Head-Change  Column Row Layer    Maximum-Flux-Residual          L2-NORM 
          0                 1           2             2    1     1       0.1711735605E-02       2    1    1         0.8897105176E-01      0.1326515084E+00
          0                 2           2             2    1     1      -0.1665053481E-03       2    1    1        -0.8897115153E-02      0.1326515422E-01
          0                 3           1             2    1     1       0.1133839518E-04       2    1    1         0.6227982281E-03      0.9285614036E-03

    ------------------------------------------------
       NWT REQUIRED            3 OUTER ITERATIONS 
       AND A TOTAL OF          5 INNER ITERATIONS.
    ------------------------------------------------

 NO OUTPUT CONTROL FOR STRESS PERIOD   23   TIME STEP   18
 
 SOLVING FOR HEAD 
                                                   Max.-Head-Change                         Max.-Flux-Residual
  Residual-Control   Outer-Iter.   Inner-Iter.     Column Row Layer    Maximum-Head-Change  Column Row Layer    Maximum-Flux-Residual          L2-NORM 
          0                 1           2             2    1     1       0.1707797844E-02       2    1    1         0.8876564351E-01      0.1317699452E+00
          0                 2           2             2    1     1      -0.1661223104E-03       2    1    1        -0.8876574260E-02      0.1317699324E-01
          0                 3           1             2    1     1       0.1131231189E-04       2    1    1         0.6213603773E-03      0.9223893542E-03

    ------------------------------------------------
       NWT REQUIRED            3 OUTER ITERATIONS 
       AND A TOTAL OF          5 INNER ITERATIONS.
    ------------------------------------------------

 NO OUTPUT CONTROL FOR STRESS PERIOD   23   TIME STEP   19
 
 SOLVING FOR HEAD 
                                                   Max.-Head-Change                         Max.-Flux-Residual
  Residual-Control   Outer-Iter.   Inner-Iter.     Column Row Layer    Maximum-Head-Change  Column Row Layer    Maximum-Flux-Residual          L2-NORM 
          0                 1           2             2    1     1       0.1703905259E-02       2    1    1         0.8856259321E-01      0.1309123015E+00
          0                 2           2             2    1     1      -0.1657436670E-03       2    1    1        -0.8856269160E-02      0.1309123704E-01
          0                 3           1             2    1     1       0.1128652776E-04       2    1    1         0.6199390164E-03      0.9163895478E-03

    ------------------------------------------------
       NWT REQUIRED            3 OUTER ITERATIONS 
       AND A TOTAL OF          5 INNER ITERATIONS.
    ------------------------------------------------

 NO OUTPUT CONTROL FOR STRESS PERIOD   23   TIME STEP   20
 
 SOLVING FOR HEAD 
                                                   Max.-Head-Change                         Max.-Flux-Residual
  Residual-Control   Outer-Iter.   Inner-Iter.     Column Row Layer    Maximum-Head-Change  Column Row Layer    Maximum-Flux-Residual          L2-NORM 
          0                 1           2             2    1     1       0.1700036026E-02       2    1    1         0.8836076649E-01      0.1300734569E+00
          0                 2           2             2    1     1      -0.1653672949E-03       2    1    1        -0.8836086404E-02      0.1300764610E-01
          0                 3           1             2    1     1       0.1126089865E-04       2    1    1         0.6185262388E-03      0.9105355053E-03

    ------------------------------------------------
       NWT REQUIRED            3 OUTER ITERATIONS 
       AND A TOTAL OF          5 INNER ITERATIONS.
    ------------------------------------------------

 NO OUTPUT CONTROL FOR STRESS PERIOD   23   TIME STEP   21
 
 SOLVING FOR HEAD 
                                                   Max.-Head-Change                         Max.-Flux-Residual
  Residual-Control   Outer-Iter.   Inner-Iter.     Column Row Layer    Maximum-Head-Change  Column Row Layer    Maximum-Flux-Residual          L2-NORM 
          0                 1           2             2    1     1       0.1696168377E-02       2    1    1         0.8815903172E-01      0.1292504802E+00
          0                 2           2             2    1     1      -0.1649910771E-03       2    1    1        -0.8815912874E-02      0.1292505128E-01
          0                 3           1             2    1     1       0.1123527924E-04       2    1    1         0.6171140674E-03      0.9047485261E-03

    ------------------------------------------------
       NWT REQUIRED            3 OUTER ITERATIONS 
       AND A TOTAL OF          5 INNER ITERATIONS.
    ------------------------------------------------

 NO OUTPUT CONTROL FOR STRESS PERIOD   23   TIME STEP   22
 
 SOLVING FOR HEAD 
                                                   Max.-Head-Change                         Max.-Flux-Residual
  Residual-Control   Outer-Iter.   Inner-Iter.     Column Row Layer    Maximum-Head-Change  Column Row Layer    Maximum-Flux-Residual          L2-NORM 
          0                 1           2             2    1     1       0.1692345180E-02       2    1    1         0.8795961681E-01      0.1284514448E+00
          0                 2           2             2    1     1      -0.1646191833E-03       2    1    1        -0.8795971325E-02      0.1284513814E-01
          0                 3           1             2    1     1       0.1120995425E-04       2    1    1         0.6157181593E-03      0.8991612572E-03

    ------------------------------------------------
       NWT REQUIRED            3 OUTER ITERATIONS 
       AND A TOTAL OF          5 INNER ITERATIONS.
    ------------------------------------------------

 NO OUTPUT CONTROL FOR STRESS PERIOD   23   TIME STEP   23
 
 SOLVING FOR HEAD 
                                                   Max.-Head-Change                         Max.-Flux-Residual
  Residual-Control   Outer-Iter.   Inner-Iter.     Column Row Layer    Maximum-Head-Change  Column Row Layer    Maximum-Flux-Residual          L2-NORM 
          0                 1           2             2    1     1       0.1688544646E-02       2    1    1         0.8776138778E-01      0.1276745372E+00
          0                 2           2             2    1     1      -0.1642494939E-03       2    1    1        -0.8776148340E-02      0.1276746128E-01
          0                 3           1             2    1     1       0.1118478026E-04       2    1    1         0.6143305609E-03      0.8937371647E-03

    ------------------------------------------------
       NWT REQUIRED            3 OUTER ITERATIONS 
       AND A TOTAL OF          5 INNER ITERATIONS.
    ------------------------------------------------

 NO OUTPUT CONTROL FOR STRESS PERIOD   23   TIME STEP   24
 
 SOLVING FOR HEAD 
                                                   Max.-Head-Change                         Max.-Flux-Residual
  Residual-Control   Outer-Iter.   Inner-Iter.     Column Row Layer    Maximum-Head-Change  Column Row Layer    Maximum-Flux-Residual          L2-NORM 
          0                 1           2             2    1     1       0.1684745085E-02       2    1    1         0.8756321484E-01      0.1269140332E+00
          0                 2           2             2    1     1      -0.1638798994E-03       2    1    1        -0.8756330991E-02      0.1269140371E-01
          0                 3           1             2    1     1       0.1115961196E-04       2    1    1         0.6129433423E-03      0.8883960700E-03

    ------------------------------------------------
       NWT REQUIRED            3 OUTER ITERATIONS 
       AND A TOTAL OF          5 INNER ITERATIONS.
    ------------------------------------------------

 NO OUTPUT CONTROL FOR STRESS PERIOD   23   TIME STEP   25
 
 SOLVING FOR HEAD 
                                                   Max.-Head-Change                         Max.-Flux-Residual
  Residual-Control   Outer-Iter.   Inner-Iter.     Column Row Layer    Maximum-Head-Change  Column Row Layer    Maximum-Flux-Residual          L2-NORM 
          0                 1           2             2    1     1       0.1680989281E-02       2    1    1         0.8736733040E-01      0.1261711584E+00
          0                 2           2             2    1     1      -0.1635145611E-03       2    1    1        -0.8736742482E-02      0.1261711820E-01
          0                 3           1             2    1     1       0.1113473404E-04       2    1    1         0.6115721486E-03      0.8831989820E-03

    ------------------------------------------------
       NWT REQUIRED            3 OUTER ITERATIONS 
       AND A TOTAL OF          5 INNER ITERATIONS.
    ------------------------------------------------

 NO OUTPUT CONTROL FOR STRESS PERIOD   23   TIME STEP   26
 
 SOLVING FOR HEAD 
                                                   Max.-Head-Change                         Max.-Flux-Residual
  Residual-Control   Outer-Iter.   Inner-Iter.     Column Row Layer    Maximum-Head-Change  Column Row Layer    Maximum-Flux-Residual          L2-NORM 
          0                 1           2             2    1     1       0.1677233990E-02       2    1    1         0.8717147648E-01      0.1254416887E+00
          0                 2           2             2    1     1      -0.1631492726E-03       2    1    1        -0.8717157012E-02      0.1254416611E-01
          0                 3           1             2    1     1       0.1110985921E-04       2    1    1         0.6102011712E-03      0.8780979196E-03

    ------------------------------------------------
       NWT REQUIRED            3 OUTER ITERATIONS 
       AND A TOTAL OF          5 INNER ITERATIONS.
    ------------------------------------------------

 NO OUTPUT CONTROL FOR STRESS PERIOD   23   TIME STEP   27
 
 SOLVING FOR HEAD 
                                                   Max.-Head-Change                         Max.-Flux-Residual
  Residual-Control   Outer-Iter.   Inner-Iter.     Column Row Layer    Maximum-Head-Change  Column Row Layer    Maximum-Flux-Residual          L2-NORM 
          0                 1           2             2    1     1       0.1673522007E-02       2    1    1         0.8697788751E-01      0.1247399153E+00
          0                 2           2             2    1     1      -0.1627881969E-03       2    1    1        -0.8697798038E-02      0.1247398743E-01
          0                 3           1             2    1     1       0.1108527170E-04       2    1    1         0.6088460503E-03      0.8731769747E-03

    ------------------------------------------------
       NWT REQUIRED            3 OUTER ITERATIONS 
       AND A TOTAL OF          5 INNER ITERATIONS.
    ------------------------------------------------

 NO OUTPUT CONTROL FOR STRESS PERIOD   23   TIME STEP   28
 
 SOLVING FOR HEAD 
                                                   Max.-Head-Change                         Max.-Flux-Residual
  Residual-Control   Outer-Iter.   Inner-Iter.     Column Row Layer    Maximum-Head-Change  Column Row Layer    Maximum-Flux-Residual          L2-NORM 
          0                 1           2             2    1     1       0.1669810093E-02       2    1    1         0.8678430562E-01      0.1240456720E+00
          0                 2           2             2    1     1      -0.1624271277E-03       2    1    1        -0.8678439794E-02      0.1240506433E-01
          0                 3           1             2    1     1       0.1106068395E-04       2    1    1         0.6074909549E-03      0.8799332863E-03

    ------------------------------------------------
       NWT REQUIRED            3 OUTER ITERATIONS 
       AND A TOTAL OF          5 INNER ITERATIONS.
    ------------------------------------------------

 NO OUTPUT CONTROL FOR STRESS PERIOD   23   TIME STEP   29
 
 SOLVING FOR HEAD 
                                                   Max.-Head-Change                         Max.-Flux-Residual
  Residual-Control   Outer-Iter.   Inner-Iter.     Column Row Layer    Maximum-Head-Change  Column Row Layer    Maximum-Flux-Residual          L2-NORM 
          0                 1           2             2    1     1       0.1666141051E-02       2    1    1         0.8659296579E-01      0.1233719275E+00
          0                 2           2             2    1     1      -0.1620702291E-03       2    1    1        -0.8659305748E-02      0.1233718972E-01
          0                 3           1             2    1     1       0.1103638044E-04       2    1    1         0.6061515818E-03      0.8636053399E-03

    ------------------------------------------------
       NWT REQUIRED            3 OUTER ITERATIONS 
       AND A TOTAL OF          5 INNER ITERATIONS.
    ------------------------------------------------

 NO OUTPUT CONTROL FOR STRESS PERIOD   23   TIME STEP   30



 STREAM LISTING     PERIOD     23   STEP       30

 LAYER ROW COL. STREAM  RCH.  FLOW INTO     FLOW TO   FLOW OUT OF   OVRLND.     DIRECT     STREAM       STREAM     STREAM     STREAM   STREAMBED  STREAMBED
                SEG.NO.  NO.  STRM. RCH.    AQUIFER    STRM. RCH.    RUNOFF     PRECIP       ET          HEAD       DEPTH      WIDTH   CONDCTNC.   GRADIENT

   1    1    1     1     1    1.6500E+01  1.9759E-01   1.6303E+01  0.000E+00  0.000E+00  0.000E+00  1.09409E+03  1.039E+00  1.087E+01  4.893E-02  1.346E+00
   1    2    2     1     2    1.6303E+01  3.0466E-01   1.5998E+01  0.000E+00  0.000E+00  0.000E+00  1.08909E+03  1.034E+00  1.079E+01  7.552E-02  1.345E+00
   1    3    3     1     3    1.5998E+01  2.5853E-01   1.5739E+01  0.000E+00  0.000E+00  0.000E+00  1.08345E+03  1.029E+00  1.070E+01  6.417E-02  1.343E+00
   1    3    4     1     4    1.5739E+01  2.3700E-01   1.5502E+01  0.000E+00  0.000E+00  0.000E+00  1.07843E+03  1.024E+00  1.061E+01  5.890E-02  1.341E+00
   1    4    5     2     1    1.3502E+01  2.9865E-01   1.3204E+01  0.000E+00  0.000E+00  0.000E+00  1.07276E+03  8.289E-01  1.200E+01  7.800E-02  1.276E+00
   1    5    6     2     2    1.3204E+01  2.2914E-01   1.2975E+01  0.000E+00  0.000E+00  0.000E+00  1.06733E+03  8.190E-01  1.200E+01  6.000E-02  1.273E+00
   1    6    6     2     3    1.2975E+01  2.2862E-01   1.2746E+01  0.000E+00  0.000E+00  0.000E+00  1.06260E+03  8.104E-01  1.200E+01  6.000E-02  1.270E+00
   1    7    6     2     4    1.2746E+01  2.2810E-01   1.2518E+01  0.000E+00  0.000E+00  0.000E+00  1.05788E+03  8.017E-01  1.200E+01  6.000E-02  1.267E+00
   1    8    6     2     5    1.2518E+01  2.2758E-01   1.2290E+01  0.000E+00  0.000E+00  0.000E+00  1.05315E+03  7.930E-01  1.200E+01  6.000E-02  1.264E+00
   1    3    5     3     1    2.0000E+00  2.8252E-01   1.7175E+00  0.000E+00  0.000E+00  0.000E+00  1.07555E+03  1.909E+00  9.636E+00  7.227E-02  1.955E+00
   1    3    6     3     2    1.7175E+00  2.4905E-01   1.4684E+00  0.000E+00  0.000E+00  0.000E+00  1.07264E+03  1.727E+00  8.909E+00  6.682E-02  1.864E+00
   1    3    7     3     3    1.4684E+00  1.9718E-01   1.2712E+00  0.000E+00  0.000E+00  0.000E+00  1.06987E+03  1.555E+00  8.218E+00  5.547E-02  1.777E+00
   1    4    8     3     4    1.2712E+00  2.2567E-01   1.0456E+00  0.000E+00  0.000E+00  0.000E+00  1.06682E+03  1.364E+00  7.455E+00  6.709E-02  1.682E+00
   1    5    8     3     5    1.0456E+00  1.5790E-01   8.8768E-01  0.000E+00  0.000E+00  0.000E+00  1.06362E+03  1.164E+00  6.655E+00  4.991E-02  1.582E+00
   1    6    8     3     6    8.8768E-01  5.5980E-02   8.3170E-01  0.000E+00  0.000E+00  0.000E+00  1.06158E+03  1.036E+00  6.145E+00  1.844E-02  1.518E+00
   1    5   10     4     1    1.0000E+01  9.0919E-02   9.9091E+00  0.000E+00  0.000E+00  0.000E+00  1.07836E+03  6.368E-01  1.000E+01  2.500E-02  1.212E+00
   1    5    9     4     2    9.9091E+00  1.8158E-01   9.7275E+00  0.000E+00  0.000E+00  0.000E+00  1.07154E+03  6.315E-01  1.000E+01  5.000E-02  1.211E+00
   1    6    8     4     3    9.7275E+00  1.2689E-01   9.6006E+00  0.000E+00  0.000E+00  0.000E+00  1.06381E+03  6.256E-01  1.000E+01  3.500E-02  1.209E+00
   1    6    8     5     1    1.0432E+01  2.2686E-01   1.0205E+01  0.000E+00  0.000E+00  0.000E+00  1.05868E+03  6.790E-01  1.542E+01  6.166E-02  1.226E+00
   1    7    7     5     2    1.0205E+01  2.7894E-01   9.9265E+00  0.000E+00  0.000E+00  0.000E+00  1.05417E+03  6.732E-01  1.519E+01  7.594E-02  1.224E+00
   1    8    7     5     3    9.9265E+00  1.9221E-01   9.7343E+00  0.000E+00  0.000E+00  0.000E+00  1.04992E+03  6.676E-01  1.497E+01  5.241E-02  1.223E+00
   1    8    6     5     4    9.7343E+00  1.3577E-01   9.5985E+00  0.000E+00  0.000E+00  0.000E+00  1.04691E+03  6.637E-01  1.482E+01  3.706E-02  1.221E+00
   1    9    6     6     1    9.5985E+00  2.2097E-01   9.3776E+00  0.000E+00  0.000E+00  0.000E+00  1.04341E+03  6.828E-01  1.200E+01  6.000E-02  1.228E+00
   1   10    7     6     2    9.3776E+00  2.2039E-01   9.1572E+00  0.000E+00  0.000E+00  0.000E+00  1.03885E+03  6.732E-01  1.200E+01  6.000E-02  1.224E+00
   1   11    7     6     3    9.1572E+00  2.1981E-01   8.9374E+00  0.000E+00  0.000E+00  0.000E+00  1.03430E+03  6.636E-01  1.200E+01  6.000E-02  1.221E+00
   1   12    7     6     4    8.9374E+00  2.1923E-01   8.7181E+00  0.000E+00  0.000E+00  0.000E+00  1.02974E+03  6.539E-01  1.200E+01  6.000E-02  1.218E+00
   1   13    7     6     5    8.7181E+00 -1.1085E-01   8.8290E+00  0.000E+00  0.000E+00  0.000E+00  1.02656E+03  6.514E-01  1.200E+01  2.400E-01 -1.540E-01
   1   14    9     7     1    1.5000E+02  1.3433E+00   1.4866E+02  0.000E+00  0.000E+00  0.000E+00  1.03987E+03  2.288E+00  5.529E+01  5.593E-01  8.006E-01
   1   13    8     7     2    1.4866E+02  1.8483E+00   1.4681E+02  0.000E+00  0.000E+00  0.000E+00  1.03478E+03  2.279E+00  5.526E+01  6.148E-01  1.002E+00
   1   13    7     7     3    1.4681E+02  1.4895E+00   1.4532E+02  0.000E+00  0.000E+00  0.000E+00  1.02969E+03  2.270E+00  5.522E+01  5.584E-01  8.891E-01
   1   13    6     8     1    1.5415E+02  8.4143E-01   1.5331E+02  0.000E+00  0.000E+00  0.000E+00  1.02472E+03  2.843E+00  4.122E+01  4.201E-01  6.677E-01
   1   13    5     8     2    1.5331E+02  1.1138E-01   1.5320E+02  0.000E+00  0.000E+00  0.000E+00  1.01846E+03  2.840E+00  4.117E+01  4.196E-01  8.849E-02
   1   13    4     8     3    1.5320E+02 -2.6424E+00   1.5584E+02  0.000E+00  0.000E+00  0.000E+00  1.01222E+03  2.848E+00  4.130E+01  4.209E+00 -2.093E-01
   1   13    3     8     4    1.5584E+02 -3.7300E+00   1.5957E+02  0.000E+00  0.000E+00  0.000E+00  1.00600E+03  2.870E+00  4.162E+01  4.241E+00 -2.932E-01
   1   13    2     8     5    1.5957E+02 -2.5945E+00   1.6216E+02  0.000E+00  0.000E+00  0.000E+00  9.99767E+02  2.892E+00  4.193E+01  4.273E+00 -2.024E-01
   1   13    1     8     6    1.6216E+02 -1.9796E+00   1.6414E+02  0.000E+00  0.000E+00  0.000E+00  9.94782E+02  2.907E+00  4.215E+01  2.577E+00 -2.560E-01
   1    8    6     9     1    1.2290E+01  0.0000E+00   1.2290E+01  0.000E+00  0.000E+00  0.000E+00  1.08131E+03  2.565E+00  4.000E+00  0.000E+00  1.855E+00
   1    8    5     9     2    1.2290E+01  0.0000E+00   1.2290E+01  0.000E+00  0.000E+00  0.000E+00  1.08081E+03  2.565E+00  4.000E+00  0.000E+00  1.855E+00





UNSATURATED ZONE PACKAGE VOLUMETRIC BUDGET FOR  TIME STEP    30 STRESS PERIOD   23
  ------------------------------------------------------------------------------



     CUMULATIVE VOLUMES      L**3       RATES FOR THIS TIME STEP      L**3/T
     ------------------                 ------------------------

           IN:                                      IN:
           ---                                      ---
        INFILTRATION =    49109571.2003          INFILTRATION =           0.8475

          OUT:                                     OUT:
          ----                                     ----
              UZF ET =    48364653.4296                UZF ET =           0.8475
        UZF RECHARGE =       73224.0000          UZF RECHARGE =       0.0000E+00

            IN - OUT =      671693.7707              IN - OUT =       0.0000E+00

          STORAGE:                                 STORAGE:
          --------                                 --------
      STORAGE CHANGE =      671693.9465        STORAGE CHANGE =       0.0000E+00

 PERCENT DISCREPANCY IS DIFFERENCE BETWEEN IN-OUT MINUS CHANGE IN STORAGE
 DIVIDED BY THE AVERAGE OF IN AND OUT TIMES 100

 PERCENT DISCREPANCY =           0.00     PERCENT DISCREPANCY =           0.00






1
  VOLUMETRIC BUDGET FOR ENTIRE MODEL AT END OF TIME STEP   30, STRESS PERIOD  23
  ------------------------------------------------------------------------------

     CUMULATIVE VOLUMES      L**3       RATES FOR THIS TIME STEP      L**3/T
     ------------------                 ------------------------

           IN:                                      IN:
           ---                                      ---
             STORAGE     =    22831318.0000               STORAGE     =           0.2674
       CONSTANT HEAD     =           0.0000         CONSTANT HEAD     =           0.0000
     HEAD DEP BOUNDS     =    16573529.0000       HEAD DEP BOUNDS     =           0.2863
      STREAM LEAKAGE     =   679954176.0000        STREAM LEAKAGE     =          11.1256
        UZF RECHARGE     =       73223.9531          UZF RECHARGE     =           0.0000
               GW ET     =           0.0000                 GW ET     =           0.0000
     SURFACE LEAKAGE     =           0.0000       SURFACE LEAKAGE     =           0.0000

                TOTAL IN =   719432256.0000                  TOTAL IN =          11.6793

          OUT:                                     OUT:
          ----                                     ----
             STORAGE     =    60498320.0000               STORAGE     =           0.3350
       CONSTANT HEAD     =           0.0000         CONSTANT HEAD     =           0.0000
     HEAD DEP BOUNDS     =    16626556.0000       HEAD DEP BOUNDS     =           0.2869
      STREAM LEAKAGE     =   642317760.0000        STREAM LEAKAGE     =          11.0574
        UZF RECHARGE     =           0.0000          UZF RECHARGE     =           0.0000
               GW ET     =           0.0000                 GW ET     =           0.0000
     SURFACE LEAKAGE     =           0.0000       SURFACE LEAKAGE     =           0.0000

               TOTAL OUT =   719442624.0000                 TOTAL OUT =          11.6793

                IN - OUT =      -10368.0000                  IN - OUT =      -1.5259E-05

     PERCENT DISCREPANCY =          -0.00         PERCENT DISCREPANCY =          -0.00






         TIME SUMMARY AT END OF TIME STEP   30 IN STRESS PERIOD   23
                    SECONDS     MINUTES      HOURS       DAYS        YEARS
                    -----------------------------------------------------------
   TIME STEP LENGTH  87667.      1461.1      24.352      1.0147     2.77799E-03
 STRESS PERIOD TIME 2.63000E+06  43833.      730.56      30.440     8.33397E-02
         TOTAL TIME 5.79467E+07 9.65778E+05  16096.      670.68      1.8362    
1
1
                            STRESS PERIOD NO.   24, LENGTH =   2630000.    
                            -----------------------------------------------

                              NUMBER OF TIME STEPS =    30

                               MULTIPLIER FOR DELT =     1.000

                            INITIAL TIME STEP SIZE =   87666.66    

 REUSING NON-PARAMETER GHB CELLS FROM LAST STRESS PERIOD

      2 GHB CELLS

 REUSING STREAM SEGMENT DATA FROM LAST STRESS PERIOD



            AREAL INFILTRATION RATE
 READING ON UNIT   19 WITH FORMAT: (FREE)              

            1           2           3           4           5           6           7           8           9          10
 ........................................................................................................................
   1   1.0000E-10  2.0000E-10   0.000       0.000       0.000       0.000       0.000       0.000       0.000       0.000    
   2   2.0000E-10  1.0000E-10  2.0000E-10   0.000       0.000      8.0000E-10  8.0000E-10  5.0000E-10   0.000       0.000    
   3    0.000      5.0000E-10  1.0000E-10  1.0000E-10  8.0000E-10  8.0000E-10  5.0000E-10  5.0000E-10   0.000       0.000    
   4   8.0000E-10  5.0000E-10  1.0000E-10  1.0000E-10  1.0000E-10  1.0000E-10  1.0000E-10  1.0000E-10  2.0000E-10   0.000    
   5   8.0000E-10  5.0000E-10  1.0000E-10  1.0000E-10  1.0000E-10  1.0000E-10  1.0000E-10  1.0000E-10  1.0000E-10  1.0000E-10
   6   8.0000E-10  5.0000E-10  5.0000E-10  2.0000E-10  2.0000E-10  1.0000E-10  1.0000E-10  1.0000E-10  1.0000E-10  5.0000E-10
   7   8.0000E-10  5.0000E-10  5.0000E-10  2.0000E-10  2.0000E-10  1.0000E-10  1.0000E-10  2.0000E-10  2.0000E-10   0.000    
   8    0.000      5.0000E-10  5.0000E-10  2.0000E-10  2.0000E-10  1.0000E-10  1.0000E-10  2.0000E-10  5.0000E-10   0.000    
   9    0.000      5.0000E-10  5.0000E-10  2.0000E-10  2.0000E-10  1.0000E-10  1.0000E-10  2.0000E-10  5.0000E-10   0.000    
  10    0.000      5.0000E-10  5.0000E-10  2.0000E-10  2.0000E-10  1.0000E-10  1.0000E-10  2.0000E-10  5.0000E-10  8.0000E-10
  11    0.000      1.0000E-10  1.0000E-10  1.0000E-10  1.0000E-10  1.0000E-10  1.0000E-10  2.0000E-10  5.0000E-10   0.000    
  12   1.0000E-10  1.0000E-10  1.0000E-10  1.0000E-10  1.0000E-10  1.0000E-10  1.0000E-10  1.0000E-10  2.0000E-10   0.000    
  13   1.0000E-10  1.0000E-10  2.0000E-10  2.0000E-10  2.0000E-10  2.0000E-10  2.0000E-10  1.0000E-10  1.0000E-10   0.000    
  14    0.000      2.0000E-10  5.0000E-10  5.0000E-10  5.0000E-10  5.0000E-10  5.0000E-10  2.0000E-10  1.0000E-10   0.000    
  15    0.000       0.000      8.0000E-10  8.0000E-10  8.0000E-10  8.0000E-10   0.000       0.000       0.000       0.000    

                  ET RATE =  5.000000E-10

 USING ET EXTINCTION DEPTH FROM PREVIOUS STRESS PERIOD. CURRENT PERIOD IS:      24

 USING EXTINCTION WATER CONTENT FROM PREVIOUS STRESS PERIOD. CURRENT PERIOD IS:      24

 USING AIR ENTRY PRESSURE FROM PREVIOUS STRESS PERIOD. CURRENT PERIOD IS:      24

 USING ROOT PRESSURE HEAD FROM PREVIOUS STRESS PERIOD. CURRENT PERIOD IS:      24

 USING ROOT ACTIVITY FROM PREVIOUS STRESS PERIOD. CURRENT PERIOD IS:      24
 
 SOLVING FOR HEAD 
                                                   Max.-Head-Change                         Max.-Flux-Residual
  Residual-Control   Outer-Iter.   Inner-Iter.     Column Row Layer    Maximum-Head-Change  Column Row Layer    Maximum-Flux-Residual          L2-NORM 
          0                 1           2             2    1     1       0.1662355314E-02       2    1    1         0.8640161027E-01      0.1241477719E+00
          0                 2           2             2    1     1      -0.1617019812E-03       2    1    1        -0.8640170279E-02      0.1241478061E-01
          0                 3           1             2    1     1       0.1101130373E-04       2    1    1         0.6048120792E-03      0.8690306041E-03

    ------------------------------------------------
       NWT REQUIRED            3 OUTER ITERATIONS 
       AND A TOTAL OF          5 INNER ITERATIONS.
    ------------------------------------------------

 NO OUTPUT CONTROL FOR STRESS PERIOD   24   TIME STEP    1
 
 SOLVING FOR HEAD 
                                                   Max.-Head-Change                         Max.-Flux-Residual
  Residual-Control   Outer-Iter.   Inner-Iter.     Column Row Layer    Maximum-Head-Change  Column Row Layer    Maximum-Flux-Residual          L2-NORM 
          0                 1           2             2    1     1       0.1658430565E-02       2    1    1         0.8620644103E-01      0.1260805693E+00
          0                 2           2             2    1     1      -0.1613202125E-03       2    1    1        -0.8620653509E-02      0.1260806233E-01
          0                 3           1             2    1     1       0.1098530682E-04       2    1    1         0.6034459123E-03      0.8825673379E-03

    ------------------------------------------------
       NWT REQUIRED            3 OUTER ITERATIONS 
       AND A TOTAL OF          5 INNER ITERATIONS.
    ------------------------------------------------

 NO OUTPUT CONTROL FOR STRESS PERIOD   24   TIME STEP    2
 
 SOLVING FOR HEAD 
                                                   Max.-Head-Change                         Max.-Flux-Residual
  Residual-Control   Outer-Iter.   Inner-Iter.     Column Row Layer    Maximum-Head-Change  Column Row Layer    Maximum-Flux-Residual          L2-NORM 
          0                 1           2             2    1     1       0.1654507149E-02       2    1    1         0.8600182422E-01      0.1252888671E+00
          0                 2           2             2    1     1      -0.1609385703E-03       2    1    1        -0.8600191772E-02      0.1252888767E-01
          0                 3           1             2    1     1       0.1095931844E-04       2    1    1         0.6020135913E-03      0.8770307982E-03

    ------------------------------------------------
       NWT REQUIRED            3 OUTER ITERATIONS 
       AND A TOTAL OF          5 INNER ITERATIONS.
    ------------------------------------------------

 NO OUTPUT CONTROL FOR STRESS PERIOD   24   TIME STEP    3
 
 SOLVING FOR HEAD 
                                                   Max.-Head-Change                         Max.-Flux-Residual
  Residual-Control   Outer-Iter.   Inner-Iter.     Column Row Layer    Maximum-Head-Change  Column Row Layer    Maximum-Flux-Residual          L2-NORM 
          0                 1           2             2    1     1       0.1650606552E-02       2    1    1         0.8579839889E-01      0.1245144845E+00
          0                 2           2             2    1     1      -0.1605591474E-03       2    1    1        -0.8579849169E-02      0.1245144876E-01
          0                 3           1             2    1     1       0.1093348082E-04       2    1    1         0.6005895962E-03      0.8716097198E-03

    ------------------------------------------------
       NWT REQUIRED            3 OUTER ITERATIONS 
       AND A TOTAL OF          5 INNER ITERATIONS.
    ------------------------------------------------

 NO OUTPUT CONTROL FOR STRESS PERIOD   24   TIME STEP    4
 
 SOLVING FOR HEAD 
                                                   Max.-Head-Change                         Max.-Flux-Residual
  Residual-Control   Outer-Iter.   Inner-Iter.     Column Row Layer    Maximum-Head-Change  Column Row Layer    Maximum-Flux-Residual          L2-NORM 
          0                 1           2             2    1     1       0.1646750115E-02       2    1    1         0.8559727628E-01      0.1237580084E+00
          0                 2           2             2    1     1      -0.1601840205E-03       2    1    1        -0.8559736852E-02      0.1237580680E-01
          0                 3           1             2    1     1       0.1090793644E-04       2    1    1         0.5991817364E-03      0.8663097085E-03

    ------------------------------------------------
       NWT REQUIRED            3 OUTER ITERATIONS 
       AND A TOTAL OF          5 INNER ITERATIONS.
    ------------------------------------------------

 NO OUTPUT CONTROL FOR STRESS PERIOD   24   TIME STEP    5
 
 SOLVING FOR HEAD 
                                                   Max.-Head-Change                         Max.-Flux-Residual
  Residual-Control   Outer-Iter.   Inner-Iter.     Column Row Layer    Maximum-Head-Change  Column Row Layer    Maximum-Flux-Residual          L2-NORM 
          0                 1           2             2    1     1       0.1642894449E-02       2    1    1         0.8539620414E-01      0.1230214750E+00
          0                 2           2             2    1     1      -0.1598089680E-03       2    1    1        -0.8539629557E-02      0.1230214331E-01
          0                 3           1             2    1     1       0.1088239655E-04       2    1    1         0.5977742235E-03      0.8611456106E-03

    ------------------------------------------------
       NWT REQUIRED            3 OUTER ITERATIONS 
       AND A TOTAL OF          5 INNER ITERATIONS.
    ------------------------------------------------

 NO OUTPUT CONTROL FOR STRESS PERIOD   24   TIME STEP    6
 
 SOLVING FOR HEAD 
                                                   Max.-Head-Change                         Max.-Flux-Residual
  Residual-Control   Outer-Iter.   Inner-Iter.     Column Row Layer    Maximum-Head-Change  Column Row Layer    Maximum-Flux-Residual          L2-NORM 
          0                 1           2             2    1     1       0.1639060955E-02       2    1    1         0.8519629161E-01      0.1223011912E+00
          0                 2           2             2    1     1      -0.1594360731E-03       2    1    1        -0.8519638241E-02      0.1223011907E-01
          0                 3           1             2    1     1       0.1085700435E-04       2    1    1         0.5963748608E-03      0.8561083295E-03

    ------------------------------------------------
       NWT REQUIRED            3 OUTER ITERATIONS 
       AND A TOTAL OF          5 INNER ITERATIONS.
    ------------------------------------------------

 NO OUTPUT CONTROL FOR STRESS PERIOD   24   TIME STEP    7
 
 SOLVING FOR HEAD 
                                                   Max.-Head-Change                         Max.-Flux-Residual
  Residual-Control   Outer-Iter.   Inner-Iter.     Column Row Layer    Maximum-Head-Change  Column Row Layer    Maximum-Flux-Residual          L2-NORM 
          0                 1           2             2    1     1       0.1635249384E-02       2    1    1         0.8499752864E-01      0.1215975643E+00
          0                 2           2             2    1     1      -0.1590653098E-03       2    1    1        -0.8499761868E-02      0.1215975445E-01
          0                 3           1             2    1     1       0.1083175652E-04       2    1    1         0.5949835054E-03      0.8511815659E-03

    ------------------------------------------------
       NWT REQUIRED            3 OUTER ITERATIONS 
       AND A TOTAL OF          5 INNER ITERATIONS.
    ------------------------------------------------

 NO OUTPUT CONTROL FOR STRESS PERIOD   24   TIME STEP    8
 
 SOLVING FOR HEAD 
                                                   Max.-Head-Change                         Max.-Flux-Residual
  Residual-Control   Outer-Iter.   Inner-Iter.     Column Row Layer    Maximum-Head-Change  Column Row Layer    Maximum-Flux-Residual          L2-NORM 
          0                 1           2             2    1     1       0.1631459549E-02       2    1    1         0.8479990237E-01      0.1209093949E+00
          0                 2           2             2    1     1      -0.1586966615E-03       2    1    1        -0.8479999198E-02      0.1209094094E-01
          0                 3           1             2    1     1       0.1080665282E-04       2    1    1         0.5936001082E-03      0.8463654953E-03

    ------------------------------------------------
       NWT REQUIRED            3 OUTER ITERATIONS 
       AND A TOTAL OF          5 INNER ITERATIONS.
    ------------------------------------------------

 NO OUTPUT CONTROL FOR STRESS PERIOD   24   TIME STEP    9
 
 SOLVING FOR HEAD 
                                                   Max.-Head-Change                         Max.-Flux-Residual
  Residual-Control   Outer-Iter.   Inner-Iter.     Column Row Layer    Maximum-Head-Change  Column Row Layer    Maximum-Flux-Residual          L2-NORM 
          0                 1           2             2    1     1       0.1627712879E-02       2    1    1         0.8460452288E-01      0.1202393026E+00
          0                 2           2             2    1     1      -0.1583322118E-03       2    1    1        -0.8460461191E-02      0.1202393155E-01
          0                 3           1             2    1     1       0.1078183526E-04       2    1    1         0.5922324574E-03      0.8416756227E-03

    ------------------------------------------------
       NWT REQUIRED            3 OUTER ITERATIONS 
       AND A TOTAL OF          5 INNER ITERATIONS.
    ------------------------------------------------

 NO OUTPUT CONTROL FOR STRESS PERIOD   24   TIME STEP   10
 
 SOLVING FOR HEAD 
                                                   Max.-Head-Change                         Max.-Flux-Residual
  Residual-Control   Outer-Iter.   Inner-Iter.     Column Row Layer    Maximum-Head-Change  Column Row Layer    Maximum-Flux-Residual          L2-NORM 
          0                 1           2             2    1     1       0.1623965893E-02       2    1    1         0.8440914182E-01      0.1195843900E+00
          0                 2           2             2    1     1      -0.1579677308E-03       2    1    1        -0.8440923011E-02      0.1195843485E-01
          0                 3           1             2    1     1       0.1075701510E-04       2    1    1         0.5908647602E-03      0.8370894091E-03

    ------------------------------------------------
       NWT REQUIRED            3 OUTER ITERATIONS 
       AND A TOTAL OF          5 INNER ITERATIONS.
    ------------------------------------------------

 NO OUTPUT CONTROL FOR STRESS PERIOD   24   TIME STEP   11
 
 SOLVING FOR HEAD 
                                                   Max.-Head-Change                         Max.-Flux-Residual
  Residual-Control   Outer-Iter.   Inner-Iter.     Column Row Layer    Maximum-Head-Change  Column Row Layer    Maximum-Flux-Residual          L2-NORM 
          0                 1           2             2    1     1       0.1620240010E-02       2    1    1         0.8421486422E-01      0.1189407648E+00
          0                 2           2             2    1     1      -0.1576053032E-03       2    1    1        -0.8421495174E-02      0.1189407622E-01
          0                 3           1             2    1     1       0.1073233576E-04       2    1    1         0.5895048447E-03      0.8325852855E-03

    ------------------------------------------------
       NWT REQUIRED            3 OUTER ITERATIONS 
       AND A TOTAL OF          5 INNER ITERATIONS.
    ------------------------------------------------

 NO OUTPUT CONTROL FOR STRESS PERIOD   24   TIME STEP   12
 
 SOLVING FOR HEAD 
                                                   Max.-Head-Change                         Max.-Flux-Residual
  Residual-Control   Outer-Iter.   Inner-Iter.     Column Row Layer    Maximum-Head-Change  Column Row Layer    Maximum-Flux-Residual          L2-NORM 
          0                 1           2             2    1     1       0.1616535094E-02       2    1    1         0.8402168077E-01      0.1183144948E+00
          0                 2           2             2    1     1      -0.1572449152E-03       2    1    1        -0.8402176776E-02      0.1183144985E-01
          0                 3           1             2    1     1       0.1070779463E-04       2    1    1         0.5881525584E-03      0.8282007571E-03

    ------------------------------------------------
       NWT REQUIRED            3 OUTER ITERATIONS 
       AND A TOTAL OF          5 INNER ITERATIONS.
    ------------------------------------------------

 NO OUTPUT CONTROL FOR STRESS PERIOD   24   TIME STEP   13
 
 SOLVING FOR HEAD 
                                                   Max.-Head-Change                         Max.-Flux-Residual
  Residual-Control   Outer-Iter.   Inner-Iter.     Column Row Layer    Maximum-Head-Change  Column Row Layer    Maximum-Flux-Residual          L2-NORM 
          0                 1           2             2    1     1       0.1612850874E-02       2    1    1         0.8382958449E-01      0.1176996349E+00
          0                 2           2             2    1     1      -0.1568865401E-03       2    1    1        -0.8382967095E-02      0.1176996198E-01
          0                 3           1             2    1     1       0.1068339054E-04       2    1    1         0.5868078657E-03      0.8238970953E-03

    ------------------------------------------------
       NWT REQUIRED            3 OUTER ITERATIONS 
       AND A TOTAL OF          5 INNER ITERATIONS.
    ------------------------------------------------

 NO OUTPUT CONTROL FOR STRESS PERIOD   24   TIME STEP   14
 
 SOLVING FOR HEAD 
                                                   Max.-Head-Change                         Max.-Flux-Residual
  Residual-Control   Outer-Iter.   Inner-Iter.     Column Row Layer    Maximum-Head-Change  Column Row Layer    Maximum-Flux-Residual          L2-NORM 
          0                 1           2             2    1     1       0.1609187247E-02       2    1    1         0.8363856120E-01      0.1170991137E+00
          0                 2           2             2    1     1      -0.1565301681E-03       2    1    1        -0.8363864704E-02      0.1170991220E-01
          0                 3           1             2    1     1       0.1065912277E-04       2    1    1         0.5854707051E-03      0.8196918847E-03

    ------------------------------------------------
       NWT REQUIRED            3 OUTER ITERATIONS 
       AND A TOTAL OF          5 INNER ITERATIONS.
    ------------------------------------------------

 NO OUTPUT CONTROL FOR STRESS PERIOD   24   TIME STEP   15
 
 SOLVING FOR HEAD 
                                                   Max.-Head-Change                         Max.-Flux-Residual
  Residual-Control   Outer-Iter.   Inner-Iter.     Column Row Layer    Maximum-Head-Change  Column Row Layer    Maximum-Flux-Residual          L2-NORM 
          0                 1           2             2    1     1       0.1605543988E-02       2    1    1         0.8344860568E-01      0.1165181833E+00
          0                 2           2             2    1     1      -0.1561757773E-03       2    1    1        -0.8344869084E-02      0.1165181642E-01
          0                 3           1             2    1     1       0.1063499015E-04       2    1    1         0.5841410166E-03      0.8156316977E-03

    ------------------------------------------------
       NWT REQUIRED            3 OUTER ITERATIONS 
       AND A TOTAL OF          5 INNER ITERATIONS.
    ------------------------------------------------

 NO OUTPUT CONTROL FOR STRESS PERIOD   24   TIME STEP   16
 
 SOLVING FOR HEAD 
                                                   Max.-Head-Change                         Max.-Flux-Residual
  Residual-Control   Outer-Iter.   Inner-Iter.     Column Row Layer    Maximum-Head-Change  Column Row Layer    Maximum-Flux-Residual          L2-NORM 
          0                 1           2             2    1     1       0.1601920831E-02       2    1    1         0.8325970621E-01      0.1159445402E+00
          0                 2           2             2    1     1      -0.1558233423E-03       2    1    1        -0.8325979083E-02      0.1159445923E-01
          0                 3           1             2    1     1       0.1061099077E-04       2    1    1         0.5828187186E-03      0.8115835297E-03

    ------------------------------------------------
       NWT REQUIRED            3 OUTER ITERATIONS 
       AND A TOTAL OF          5 INNER ITERATIONS.
    ------------------------------------------------

 NO OUTPUT CONTROL FOR STRESS PERIOD   24   TIME STEP   17
 
 SOLVING FOR HEAD 
                                                   Max.-Head-Change                         Max.-Flux-Residual
  Residual-Control   Outer-Iter.   Inner-Iter.     Column Row Layer    Maximum-Head-Change  Column Row Layer    Maximum-Flux-Residual          L2-NORM 
          0                 1           2             2    1     1       0.1598317656E-02       2    1    1         0.8307184904E-01      0.1153820876E+00
          0                 2           2             2    1     1      -0.1554728504E-03       2    1    1        -0.8307193309E-02      0.1153853699E-01
          0                 3           1             2    1     1       0.1058712321E-04       2    1    1         0.5815036915E-03      0.8077002679E-03

    ------------------------------------------------
       NWT REQUIRED            3 OUTER ITERATIONS 
       AND A TOTAL OF          5 INNER ITERATIONS.
    ------------------------------------------------

 NO OUTPUT CONTROL FOR STRESS PERIOD   24   TIME STEP   18
 
 SOLVING FOR HEAD 
                                                   Max.-Head-Change                         Max.-Flux-Residual
  Residual-Control   Outer-Iter.   Inner-Iter.     Column Row Layer    Maximum-Head-Change  Column Row Layer    Maximum-Flux-Residual          L2-NORM 
          0                 1           2             2    1     1       0.1594734300E-02       2    1    1         0.8288502787E-01      0.1148331118E+00
          0                 2           2             2    1     1      -0.1551242867E-03       2    1    1        -0.8288511138E-02      0.1148331049E-01
          0                 3           1             2    1     1       0.1056338749E-04       2    1    1         0.5801959387E-03      0.8038306417E-03

    ------------------------------------------------
       NWT REQUIRED            3 OUTER ITERATIONS 
       AND A TOTAL OF          5 INNER ITERATIONS.
    ------------------------------------------------

 NO OUTPUT CONTROL FOR STRESS PERIOD   24   TIME STEP   19
 
 SOLVING FOR HEAD 
                                                   Max.-Head-Change                         Max.-Flux-Residual
  Residual-Control   Outer-Iter.   Inner-Iter.     Column Row Layer    Maximum-Head-Change  Column Row Layer    Maximum-Flux-Residual          L2-NORM 
          0                 1           2             2    1     1       0.1591170577E-02       2    1    1         0.8269923435E-01      0.1142980036E+00
          0                 2           2             2    1     1      -0.1547776329E-03       2    1    1        -0.8269931731E-02      0.1142979765E-01
          0                 3           1             2    1     1       0.1053978193E-04       2    1    1         0.5788953923E-03      0.8000851332E-03

    ------------------------------------------------
       NWT REQUIRED            3 OUTER ITERATIONS 
       AND A TOTAL OF          5 INNER ITERATIONS.
    ------------------------------------------------

 NO OUTPUT CONTROL FOR STRESS PERIOD   24   TIME STEP   20
 
 SOLVING FOR HEAD 
                                                   Max.-Head-Change                         Max.-Flux-Residual
  Residual-Control   Outer-Iter.   Inner-Iter.     Column Row Layer    Maximum-Head-Change  Column Row Layer    Maximum-Flux-Residual          L2-NORM 
          0                 1           2             2    1     1       0.1587604718E-02       2    1    1         0.8251333837E-01      0.1137706052E+00
          0                 2           2             2    1     1      -0.1544307710E-03       2    1    1        -0.8251342067E-02      0.1137706325E-01
          0                 3           1             2    1     1       0.1051616147E-04       2    1    1         0.5775941009E-03      0.7964100132E-03

    ------------------------------------------------
       NWT REQUIRED            3 OUTER ITERATIONS 
       AND A TOTAL OF          5 INNER ITERATIONS.
    ------------------------------------------------

 NO OUTPUT CONTROL FOR STRESS PERIOD   24   TIME STEP   21
 
 SOLVING FOR HEAD 
                                                   Max.-Head-Change                         Max.-Flux-Residual
  Residual-Control   Outer-Iter.   Inner-Iter.     Column Row Layer    Maximum-Head-Change  Column Row Layer    Maximum-Flux-Residual          L2-NORM 
          0                 1           2             2    1     1       0.1584079732E-02       2    1    1         0.8232957240E-01      0.1132549566E+00
          0                 2           2             2    1     1      -0.1540878856E-03       2    1    1        -0.8232965426E-02      0.1132549701E-01
          0                 3           1             2    1     1       0.1049281270E-04       2    1    1         0.5763077604E-03      0.7927875308E-03

    ------------------------------------------------
       NWT REQUIRED            3 OUTER ITERATIONS 
       AND A TOTAL OF          5 INNER ITERATIONS.
    ------------------------------------------------

 NO OUTPUT CONTROL FOR STRESS PERIOD   24   TIME STEP   22
 
 SOLVING FOR HEAD 
                                                   Max.-Head-Change                         Max.-Flux-Residual
  Residual-Control   Outer-Iter.   Inner-Iter.     Column Row Layer    Maximum-Head-Change  Column Row Layer    Maximum-Flux-Residual          L2-NORM 
          0                 1           2             2    1     1       0.1580573832E-02       2    1    1         0.8214680530E-01      0.1127503228E+00
          0                 2           2             2    1     1      -0.1537468562E-03       2    1    1        -0.8214688653E-02      0.1127503386E-01
          0                 3           1             2    1     1       0.1046959008E-04       2    1    1         0.5750283942E-03      0.7892539260E-03

    ------------------------------------------------
       NWT REQUIRED            3 OUTER ITERATIONS 
       AND A TOTAL OF          5 INNER ITERATIONS.
    ------------------------------------------------

 NO OUTPUT CONTROL FOR STRESS PERIOD   24   TIME STEP   23
 
 SOLVING FOR HEAD 
                                                   Max.-Head-Change                         Max.-Flux-Residual
  Residual-Control   Outer-Iter.   Inner-Iter.     Column Row Layer    Maximum-Head-Change  Column Row Layer    Maximum-Flux-Residual          L2-NORM 
          0                 1           2             2    1     1       0.1577086839E-02       2    1    1         0.8196502775E-01      0.1122607786E+00
          0                 2           2             2    1     1      -0.1534076661E-03       2    1    1        -0.8196510870E-02      0.1122607681E-01
          0                 3           1             2    1     1       0.1044649219E-04       2    1    1         0.5737559206E-03      0.7858309496E-03

    ------------------------------------------------
       NWT REQUIRED            3 OUTER ITERATIONS 
       AND A TOTAL OF          5 INNER ITERATIONS.
    ------------------------------------------------

 NO OUTPUT CONTROL FOR STRESS PERIOD   24   TIME STEP   24
 
 SOLVING FOR HEAD 
                                                   Max.-Head-Change                         Max.-Flux-Residual
  Residual-Control   Outer-Iter.   Inner-Iter.     Column Row Layer    Maximum-Head-Change  Column Row Layer    Maximum-Flux-Residual          L2-NORM 
          0                 1           2             2    1     1       0.1573618550E-02       2    1    1         0.8178423055E-01      0.1117777767E+00
          0                 2           2             2    1     1      -0.1530702952E-03       2    1    1        -0.8178431080E-02      0.1117777564E-01
          0                 3           1             2    1     1       0.1042351856E-04       2    1    1         0.5724903456E-03      0.7824470526E-03

    ------------------------------------------------
       NWT REQUIRED            3 OUTER ITERATIONS 
       AND A TOTAL OF          5 INNER ITERATIONS.
    ------------------------------------------------

 NO OUTPUT CONTROL FOR STRESS PERIOD   24   TIME STEP   25
 
 SOLVING FOR HEAD 
                                                   Max.-Head-Change                         Max.-Flux-Residual
  Residual-Control   Outer-Iter.   Inner-Iter.     Column Row Layer    Maximum-Head-Change  Column Row Layer    Maximum-Flux-Residual          L2-NORM 
          0                 1           2             2    1     1       0.1570147259E-02       2    1    1         0.8160328246E-01      0.1113050736E+00
          0                 2           2             2    1     1      -0.1527326325E-03       2    1    1        -0.8160336219E-02      0.1113050873E-01
          0                 3           1             2    1     1       0.1040052480E-04       2    1    1         0.5712236949E-03      0.7791362959E-03

    ------------------------------------------------
       NWT REQUIRED            3 OUTER ITERATIONS 
       AND A TOTAL OF          5 INNER ITERATIONS.
    ------------------------------------------------

 NO OUTPUT CONTROL FOR STRESS PERIOD   24   TIME STEP   26
 
 SOLVING FOR HEAD 
                                                   Max.-Head-Change                         Max.-Flux-Residual
  Residual-Control   Outer-Iter.   Inner-Iter.     Column Row Layer    Maximum-Head-Change  Column Row Layer    Maximum-Flux-Residual          L2-NORM 
          0                 1           2             2    1     1       0.1566716069E-02       2    1    1         0.8142442004E-01      0.1108429577E+00
          0                 2           2             2    1     1      -0.1523988704E-03       2    1    1        -0.8142449915E-02      0.1108429808E-01
          0                 3           1             2    1     1       0.1037779707E-04       2    1    1         0.5699716631E-03      0.7759028513E-03

    ------------------------------------------------
       NWT REQUIRED            3 OUTER ITERATIONS 
       AND A TOTAL OF          5 INNER ITERATIONS.
    ------------------------------------------------

 NO OUTPUT CONTROL FOR STRESS PERIOD   24   TIME STEP   27
 
 SOLVING FOR HEAD 
                                                   Max.-Head-Change                         Max.-Flux-Residual
  Residual-Control   Outer-Iter.   Inner-Iter.     Column Row Layer    Maximum-Head-Change  Column Row Layer    Maximum-Flux-Residual          L2-NORM 
          0                 1           2             2    1     1       0.1563303098E-02       2    1    1         0.8124651616E-01      0.1103874892E+00
          0                 2           2             2    1     1      -0.1520668805E-03       2    1    1        -0.8124659476E-02      0.1103874318E-01
          0                 3           1             2    1     1       0.1035518956E-04       2    1    1         0.5687263277E-03      0.7727132337E-03

    ------------------------------------------------
       NWT REQUIRED            3 OUTER ITERATIONS 
       AND A TOTAL OF          5 INNER ITERATIONS.
    ------------------------------------------------

 NO OUTPUT CONTROL FOR STRESS PERIOD   24   TIME STEP   28
 
 SOLVING FOR HEAD 
                                                   Max.-Head-Change                         Max.-Flux-Residual
  Residual-Control   Outer-Iter.   Inner-Iter.     Column Row Layer    Maximum-Head-Change  Column Row Layer    Maximum-Flux-Residual          L2-NORM 
          0                 1           2             2    1     1       0.1559886686E-02       2    1    1         0.8106843611E-01      0.1099429035E+00
          0                 2           2             2    1     1      -0.1517345561E-03       2    1    1        -0.8106851423E-02      0.1099429045E-01
          0                 3           1             2    1     1       0.1033255957E-04       2    1    1         0.5674797676E-03      0.7696004117E-03

    ------------------------------------------------
       NWT REQUIRED            3 OUTER ITERATIONS 
       AND A TOTAL OF          5 INNER ITERATIONS.
    ------------------------------------------------

 NO OUTPUT CONTROL FOR STRESS PERIOD   24   TIME STEP   29
 
 SOLVING FOR HEAD 
                                                   Max.-Head-Change                         Max.-Flux-Residual
  Residual-Control   Outer-Iter.   Inner-Iter.     Column Row Layer    Maximum-Head-Change  Column Row Layer    Maximum-Flux-Residual          L2-NORM 
          0                 1           2             2    1     1       0.1556509778E-02       2    1    1         0.8089241925E-01      0.1095103805E+00
          0                 2           2             2    1     1      -0.1514060742E-03       2    1    1        -0.8089249687E-02      0.1095103860E-01
          0                 3           1             2    1     1       0.1031019111E-04       2    1    1         0.5662476382E-03      0.7665719744E-03

    ------------------------------------------------
       NWT REQUIRED            3 OUTER ITERATIONS 
       AND A TOTAL OF          5 INNER ITERATIONS.
    ------------------------------------------------

 NO OUTPUT CONTROL FOR STRESS PERIOD   24   TIME STEP   30



 STREAM LISTING     PERIOD     24   STEP       30

 LAYER ROW COL. STREAM  RCH.  FLOW INTO     FLOW TO   FLOW OUT OF   OVRLND.     DIRECT     STREAM       STREAM     STREAM     STREAM   STREAMBED  STREAMBED
                SEG.NO.  NO.  STRM. RCH.    AQUIFER    STRM. RCH.    RUNOFF     PRECIP       ET          HEAD       DEPTH      WIDTH   CONDCTNC.   GRADIENT

   1    1    1     1     1    1.5750E+01  1.9239E-01   1.5558E+01  0.000E+00  0.000E+00  0.000E+00  1.09407E+03  1.025E+00  1.062E+01  4.780E-02  1.342E+00
   1    2    2     1     2    1.5558E+01  2.9660E-01   1.5261E+01  0.000E+00  0.000E+00  0.000E+00  1.08908E+03  1.020E+00  1.054E+01  7.378E-02  1.340E+00
   1    3    3     1     3    1.5261E+01  2.5164E-01   1.5010E+01  0.000E+00  0.000E+00  0.000E+00  1.08343E+03  1.015E+00  1.045E+01  6.268E-02  1.338E+00
   1    3    4     1     4    1.5010E+01  2.3064E-01   1.4779E+01  0.000E+00  0.000E+00  0.000E+00  1.07842E+03  1.010E+00  1.036E+01  5.752E-02  1.337E+00
   1    4    5     2     1    1.2779E+01  2.9653E-01   1.2482E+01  0.000E+00  0.000E+00  0.000E+00  1.07274E+03  8.017E-01  1.200E+01  7.800E-02  1.267E+00
   1    5    6     2     2    1.2482E+01  2.2750E-01   1.2255E+01  0.000E+00  0.000E+00  0.000E+00  1.06730E+03  7.917E-01  1.200E+01  6.000E-02  1.264E+00
   1    6    6     2     3    1.2255E+01  2.2697E-01   1.2028E+01  0.000E+00  0.000E+00  0.000E+00  1.06258E+03  7.829E-01  1.200E+01  6.000E-02  1.261E+00
   1    7    6     2     4    1.2028E+01  2.2645E-01   1.1802E+01  0.000E+00  0.000E+00  0.000E+00  1.05785E+03  7.741E-01  1.200E+01  6.000E-02  1.258E+00
   1    8    6     2     5    1.1802E+01  2.2591E-01   1.1576E+01  0.000E+00  0.000E+00  0.000E+00  1.05312E+03  7.652E-01  1.200E+01  6.000E-02  1.255E+00
   1    3    5     3     1    2.0000E+00  2.8252E-01   1.7175E+00  0.000E+00  0.000E+00  0.000E+00  1.07555E+03  1.909E+00  9.636E+00  7.227E-02  1.955E+00
   1    3    6     3     2    1.7175E+00  2.4905E-01   1.4684E+00  0.000E+00  0.000E+00  0.000E+00  1.07264E+03  1.727E+00  8.909E+00  6.682E-02  1.864E+00
   1    3    7     3     3    1.4684E+00  1.9718E-01   1.2712E+00  0.000E+00  0.000E+00  0.000E+00  1.06987E+03  1.555E+00  8.218E+00  5.547E-02  1.777E+00
   1    4    8     3     4    1.2712E+00  2.2567E-01   1.0456E+00  0.000E+00  0.000E+00  0.000E+00  1.06682E+03  1.364E+00  7.455E+00  6.709E-02  1.682E+00
   1    5    8     3     5    1.0456E+00  1.5790E-01   8.8768E-01  0.000E+00  0.000E+00  0.000E+00  1.06362E+03  1.164E+00  6.655E+00  4.991E-02  1.582E+00
   1    6    8     3     6    8.8768E-01  5.5980E-02   8.3170E-01  0.000E+00  0.000E+00  0.000E+00  1.06158E+03  1.036E+00  6.145E+00  1.844E-02  1.518E+00
   1    5   10     4     1    1.0000E+01  9.0919E-02   9.9091E+00  0.000E+00  0.000E+00  0.000E+00  1.07836E+03  6.368E-01  1.000E+01  2.500E-02  1.212E+00
   1    5    9     4     2    9.9091E+00  1.8158E-01   9.7275E+00  0.000E+00  0.000E+00  0.000E+00  1.07154E+03  6.315E-01  1.000E+01  5.000E-02  1.211E+00
   1    6    8     4     3    9.7275E+00  1.2689E-01   9.6006E+00  0.000E+00  0.000E+00  0.000E+00  1.06381E+03  6.256E-01  1.000E+01  3.500E-02  1.209E+00
   1    6    8     5     1    1.0432E+01  2.2686E-01   1.0205E+01  0.000E+00  0.000E+00  0.000E+00  1.05868E+03  6.790E-01  1.542E+01  6.166E-02  1.226E+00
   1    7    7     5     2    1.0205E+01  2.7894E-01   9.9265E+00  0.000E+00  0.000E+00  0.000E+00  1.05417E+03  6.732E-01  1.519E+01  7.594E-02  1.224E+00
   1    8    7     5     3    9.9265E+00  1.9221E-01   9.7343E+00  0.000E+00  0.000E+00  0.000E+00  1.04992E+03  6.676E-01  1.497E+01  5.241E-02  1.223E+00
   1    8    6     5     4    9.7343E+00  1.3577E-01   9.5985E+00  0.000E+00  0.000E+00  0.000E+00  1.04691E+03  6.637E-01  1.482E+01  3.706E-02  1.221E+00
   1    9    6     6     1    9.5985E+00  2.2097E-01   9.3776E+00  0.000E+00  0.000E+00  0.000E+00  1.04341E+03  6.828E-01  1.200E+01  6.000E-02  1.228E+00
   1   10    7     6     2    9.3776E+00  2.2039E-01   9.1572E+00  0.000E+00  0.000E+00  0.000E+00  1.03885E+03  6.732E-01  1.200E+01  6.000E-02  1.224E+00
   1   11    7     6     3    9.1572E+00  2.1981E-01   8.9374E+00  0.000E+00  0.000E+00  0.000E+00  1.03430E+03  6.636E-01  1.200E+01  6.000E-02  1.221E+00
   1   12    7     6     4    8.9374E+00  2.1923E-01   8.7181E+00  0.000E+00  0.000E+00  0.000E+00  1.02974E+03  6.539E-01  1.200E+01  6.000E-02  1.218E+00
   1   13    7     6     5    8.7181E+00 -1.1078E-01   8.8289E+00  0.000E+00  0.000E+00  0.000E+00  1.02656E+03  6.514E-01  1.200E+01  2.400E-01 -1.539E-01
   1   14    9     7     1    1.5000E+02  1.3435E+00   1.4866E+02  0.000E+00  0.000E+00  0.000E+00  1.03987E+03  2.288E+00  5.529E+01  5.593E-01  8.007E-01
   1   13    8     7     2    1.4866E+02  1.8485E+00   1.4681E+02  0.000E+00  0.000E+00  0.000E+00  1.03478E+03  2.279E+00  5.526E+01  6.148E-01  1.002E+00
   1   13    7     7     3    1.4681E+02  1.4897E+00   1.4532E+02  0.000E+00  0.000E+00  0.000E+00  1.02969E+03  2.270E+00  5.522E+01  5.584E-01  8.892E-01
   1   13    6     8     1    1.5415E+02  8.4161E-01   1.5331E+02  0.000E+00  0.000E+00  0.000E+00  1.02472E+03  2.843E+00  4.122E+01  4.201E-01  6.678E-01
   1   13    5     8     2    1.5331E+02  1.1153E-01   1.5319E+02  0.000E+00  0.000E+00  0.000E+00  1.01846E+03  2.840E+00  4.117E+01  4.196E-01  8.861E-02
   1   13    4     8     3    1.5319E+02 -2.6420E+00   1.5584E+02  0.000E+00  0.000E+00  0.000E+00  1.01222E+03  2.848E+00  4.130E+01  4.209E+00 -2.092E-01
   1   13    3     8     4    1.5584E+02 -3.7296E+00   1.5957E+02  0.000E+00  0.000E+00  0.000E+00  1.00600E+03  2.870E+00  4.162E+01  4.241E+00 -2.931E-01
   1   13    2     8     5    1.5957E+02 -2.5943E+00   1.6216E+02  0.000E+00  0.000E+00  0.000E+00  9.99767E+02  2.892E+00  4.193E+01  4.273E+00 -2.024E-01
   1   13    1     8     6    1.6216E+02 -1.9796E+00   1.6414E+02  0.000E+00  0.000E+00  0.000E+00  9.94782E+02  2.907E+00  4.215E+01  2.577E+00 -2.560E-01
   1    8    6     9     1    1.1576E+01  0.0000E+00   1.1576E+01  0.000E+00  0.000E+00  0.000E+00  1.08122E+03  2.474E+00  4.000E+00  0.000E+00  1.825E+00
   1    8    5     9     2    1.1576E+01  0.0000E+00   1.1576E+01  0.000E+00  0.000E+00  0.000E+00  1.08072E+03  2.474E+00  4.000E+00  0.000E+00  1.825E+00





UNSATURATED ZONE PACKAGE VOLUMETRIC BUDGET FOR  TIME STEP    30 STRESS PERIOD   24
  ------------------------------------------------------------------------------



     CUMULATIVE VOLUMES      L**3       RATES FOR THIS TIME STEP      L**3/T
     ------------------                 ------------------------

           IN:                                      IN:
           ---                                      ---
        INFILTRATION =    51338496.0731          INFILTRATION =           0.8475

          OUT:                                     OUT:
          ----                                     ----
              UZF ET =    50337153.5977                UZF ET =           0.7500
        UZF RECHARGE =       73224.0000          UZF RECHARGE =       0.0000E+00

            IN - OUT =      928118.4754              IN - OUT =       9.7500E-02

          STORAGE:                                 STORAGE:
          --------                                 --------
      STORAGE CHANGE =      928118.6731        STORAGE CHANGE =       9.7500E-02

 PERCENT DISCREPANCY IS DIFFERENCE BETWEEN IN-OUT MINUS CHANGE IN STORAGE
 DIVIDED BY THE AVERAGE OF IN AND OUT TIMES 100

 PERCENT DISCREPANCY =           0.00     PERCENT DISCREPANCY =           0.00






1
  VOLUMETRIC BUDGET FOR ENTIRE MODEL AT END OF TIME STEP   30, STRESS PERIOD  24
  ------------------------------------------------------------------------------

     CUMULATIVE VOLUMES      L**3       RATES FOR THIS TIME STEP      L**3/T
     ------------------                 ------------------------

           IN:                                      IN:
           ---                                      ---
             STORAGE     =    23526274.0000               STORAGE     =           0.2410
       CONSTANT HEAD     =           0.0000         CONSTANT HEAD     =           0.0000
     HEAD DEP BOUNDS     =    17326418.0000       HEAD DEP BOUNDS     =           0.2863
      STREAM LEAKAGE     =   709125120.0000        STREAM LEAKAGE     =          11.0913
        UZF RECHARGE     =       73223.9531          UZF RECHARGE     =           0.0000
               GW ET     =           0.0000                 GW ET     =           0.0000
     SURFACE LEAKAGE     =           0.0000       SURFACE LEAKAGE     =           0.0000

                TOTAL IN =   750051008.0000                  TOTAL IN =          11.6186

          OUT:                                     OUT:
          ----                                     ----
             STORAGE     =    61283080.0000               STORAGE     =           0.2755
       CONSTANT HEAD     =           0.0000         CONSTANT HEAD     =           0.0000
     HEAD DEP BOUNDS     =    17381116.0000       HEAD DEP BOUNDS     =           0.2869
      STREAM LEAKAGE     =   671397120.0000        STREAM LEAKAGE     =          11.0562
        UZF RECHARGE     =           0.0000          UZF RECHARGE     =           0.0000
               GW ET     =           0.0000                 GW ET     =           0.0000
     SURFACE LEAKAGE     =           0.0000       SURFACE LEAKAGE     =           0.0000

               TOTAL OUT =   750061312.0000                 TOTAL OUT =          11.6186

                IN - OUT =      -10304.0000                  IN - OUT =      -5.7220E-06

     PERCENT DISCREPANCY =          -0.00         PERCENT DISCREPANCY =          -0.00






         TIME SUMMARY AT END OF TIME STEP   30 IN STRESS PERIOD   24
                    SECONDS     MINUTES      HOURS       DAYS        YEARS
                    -----------------------------------------------------------
   TIME STEP LENGTH  87667.      1461.1      24.352      1.0147     2.77799E-03
 STRESS PERIOD TIME 2.63000E+06  43833.      730.56      30.440     8.33397E-02
         TOTAL TIME 6.05767E+07 1.00961E+06  16827.      701.12      1.9196    
1
1
                            STRESS PERIOD NO.   25, LENGTH =   2630000.    
                            -----------------------------------------------

                              NUMBER OF TIME STEPS =    30

                               MULTIPLIER FOR DELT =     1.000

                            INITIAL TIME STEP SIZE =   87666.66    

 REUSING NON-PARAMETER GHB CELLS FROM LAST STRESS PERIOD

      2 GHB CELLS

 REUSING STREAM SEGMENT DATA FROM LAST STRESS PERIOD



            AREAL INFILTRATION RATE
 READING ON UNIT   19 WITH FORMAT: (FREE)              

            1           2           3           4           5           6           7           8           9          10
 ........................................................................................................................
   1   1.0000E-10  2.0000E-10   0.000       0.000       0.000       0.000       0.000       0.000       0.000       0.000    
   2   2.0000E-10  1.0000E-10  2.0000E-10   0.000       0.000      8.0000E-10  8.0000E-10  5.0000E-10   0.000       0.000    
   3    0.000      5.0000E-10  1.0000E-10  1.0000E-10  8.0000E-10  8.0000E-10  5.0000E-10  5.0000E-10   0.000       0.000    
   4   8.0000E-10  5.0000E-10  1.0000E-10  1.0000E-10  1.0000E-10  1.0000E-10  1.0000E-10  1.0000E-10  2.0000E-10   0.000    
   5   8.0000E-10  5.0000E-10  1.0000E-10  1.0000E-10  1.0000E-10  1.0000E-10  1.0000E-10  1.0000E-10  1.0000E-10  1.0000E-10
   6   8.0000E-10  5.0000E-10  5.0000E-10  2.0000E-10  2.0000E-10  1.0000E-10  1.0000E-10  1.0000E-10  1.0000E-10  5.0000E-10
   7   8.0000E-10  5.0000E-10  5.0000E-10  2.0000E-10  2.0000E-10  1.0000E-10  1.0000E-10  2.0000E-10  2.0000E-10   0.000    
   8    0.000      5.0000E-10  5.0000E-10  2.0000E-10  2.0000E-10  1.0000E-10  1.0000E-10  2.0000E-10  5.0000E-10   0.000    
   9    0.000      5.0000E-10  5.0000E-10  2.0000E-10  2.0000E-10  1.0000E-10  1.0000E-10  2.0000E-10  5.0000E-10   0.000    
  10    0.000      5.0000E-10  5.0000E-10  2.0000E-10  2.0000E-10  1.0000E-10  1.0000E-10  2.0000E-10  5.0000E-10  8.0000E-10
  11    0.000      1.0000E-10  1.0000E-10  1.0000E-10  1.0000E-10  1.0000E-10  1.0000E-10  2.0000E-10  5.0000E-10   0.000    
  12   1.0000E-10  1.0000E-10  1.0000E-10  1.0000E-10  1.0000E-10  1.0000E-10  1.0000E-10  1.0000E-10  2.0000E-10   0.000    
  13   1.0000E-10  1.0000E-10  2.0000E-10  2.0000E-10  2.0000E-10  2.0000E-10  2.0000E-10  1.0000E-10  1.0000E-10   0.000    
  14    0.000      2.0000E-10  5.0000E-10  5.0000E-10  5.0000E-10  5.0000E-10  5.0000E-10  2.0000E-10  1.0000E-10   0.000    
  15    0.000       0.000      8.0000E-10  8.0000E-10  8.0000E-10  8.0000E-10   0.000       0.000       0.000       0.000    

                  ET RATE =  5.000000E-10

 USING ET EXTINCTION DEPTH FROM PREVIOUS STRESS PERIOD. CURRENT PERIOD IS:      25

 USING EXTINCTION WATER CONTENT FROM PREVIOUS STRESS PERIOD. CURRENT PERIOD IS:      25

 USING AIR ENTRY PRESSURE FROM PREVIOUS STRESS PERIOD. CURRENT PERIOD IS:      25

 USING ROOT PRESSURE HEAD FROM PREVIOUS STRESS PERIOD. CURRENT PERIOD IS:      25

 USING ROOT ACTIVITY FROM PREVIOUS STRESS PERIOD. CURRENT PERIOD IS:      25
 
 SOLVING FOR HEAD 
                                                   Max.-Head-Change                         Max.-Flux-Residual
  Residual-Control   Outer-Iter.   Inner-Iter.     Column Row Layer    Maximum-Head-Change  Column Row Layer    Maximum-Flux-Residual          L2-NORM 
          0                 1           2             2    1     1       0.1552927426E-02       2    1    1         0.8071732984E-01      0.1116308508E+00
          0                 2           2             2    1     1      -0.1510576123E-03       2    1    1        -0.8071740965E-02      0.1116308715E-01
          0                 3           1             2    1     1       0.1028646201E-04       2    1    1         0.5650220307E-03      0.7814168131E-03

    ------------------------------------------------
       NWT REQUIRED            3 OUTER ITERATIONS 
       AND A TOTAL OF          5 INNER ITERATIONS.
    ------------------------------------------------

 NO OUTPUT CONTROL FOR STRESS PERIOD   25   TIME STEP    1
 
 SOLVING FOR HEAD 
                                                   Max.-Head-Change                         Max.-Flux-Residual
  Residual-Control   Outer-Iter.   Inner-Iter.     Column Row Layer    Maximum-Head-Change  Column Row Layer    Maximum-Flux-Residual          L2-NORM 
          0                 1           2             2    1     1       0.1549261216E-02       2    1    1         0.8053046379E-01      0.1122444721E+00
          0                 2           2             2    1     1      -0.1507009908E-03       2    1    1        -0.8053054394E-02      0.1122444423E-01
          0                 3           1             2    1     1       0.1026217744E-04       2    1    1         0.5637139789E-03      0.7857110127E-03

    ------------------------------------------------
       NWT REQUIRED            3 OUTER ITERATIONS 
       AND A TOTAL OF          5 INNER ITERATIONS.
    ------------------------------------------------

 NO OUTPUT CONTROL FOR STRESS PERIOD   25   TIME STEP    2
 
 SOLVING FOR HEAD 
                                                   Max.-Head-Change                         Max.-Flux-Residual
  Residual-Control   Outer-Iter.   Inner-Iter.     Column Row Layer    Maximum-Head-Change  Column Row Layer    Maximum-Flux-Residual          L2-NORM 
          0                 1           2             2    1     1       0.1545636396E-02       2    1    1         0.8034149399E-01      0.1116962461E+00
          0                 2           2             2    1     1      -0.1503483942E-03       2    1    1        -0.8034157377E-02      0.1116962386E-01
          0                 3           1             2    1     1       0.1023816717E-04       2    1    1         0.5623911944E-03      0.7818714261E-03

    ------------------------------------------------
       NWT REQUIRED            3 OUTER ITERATIONS 
       AND A TOTAL OF          5 INNER ITERATIONS.
    ------------------------------------------------

 NO OUTPUT CONTROL FOR STRESS PERIOD   25   TIME STEP    3
 
 SOLVING FOR HEAD 
                                                   Max.-Head-Change                         Max.-Flux-Residual
  Residual-Control   Outer-Iter.   Inner-Iter.     Column Row Layer    Maximum-Head-Change  Column Row Layer    Maximum-Flux-Residual          L2-NORM 
          0                 1           2             2    1     1       0.1542009521E-02       2    1    1         0.8015242950E-01      0.1111559963E+00
          0                 2           2             2    1     1      -0.1499955969E-03       2    1    1        -0.8015250853E-02      0.1111559232E-01
          0                 3           1             2    1     1       0.1021414318E-04       2    1    1         0.5610677349E-03      0.7780886638E-03

    ------------------------------------------------
       NWT REQUIRED            3 OUTER ITERATIONS 
       AND A TOTAL OF          5 INNER ITERATIONS.
    ------------------------------------------------

 NO OUTPUT CONTROL FOR STRESS PERIOD   25   TIME STEP    4
 
 SOLVING FOR HEAD 
                                                   Max.-Head-Change                         Max.-Flux-Residual
  Residual-Control   Outer-Iter.   Inner-Iter.     Column Row Layer    Maximum-Head-Change  Column Row Layer    Maximum-Flux-Residual          L2-NORM 
          0                 1           2             2    1     1       0.1538423728E-02       2    1    1         0.7996550053E-01      0.1106276494E+00
          0                 2           2             2    1     1      -0.1496467964E-03       2    1    1        -0.7996557929E-02      0.1106276574E-01
          0                 3           1             2    1     1       0.1019039065E-04       2    1    1         0.5597592136E-03      0.7743976063E-03

    ------------------------------------------------
       NWT REQUIRED            3 OUTER ITERATIONS 
       AND A TOTAL OF          5 INNER ITERATIONS.
    ------------------------------------------------

 NO OUTPUT CONTROL FOR STRESS PERIOD   25   TIME STEP    5
 
 SOLVING FOR HEAD 
                                                   Max.-Head-Change                         Max.-Flux-Residual
  Residual-Control   Outer-Iter.   Inner-Iter.     Column Row Layer    Maximum-Head-Change  Column Row Layer    Maximum-Flux-Residual          L2-NORM 
          0                 1           2             2    1     1       0.1534835519E-02       2    1    1         0.7977845943E-01      0.1101131832E+00
          0                 2           2             2    1     1      -0.1492977612E-03       2    1    1        -0.7977853763E-02      0.1101131268E-01
          0                 3           1             2    1     1       0.1016662321E-04       2    1    1         0.5584499518E-03      0.7707834985E-03

    ------------------------------------------------
       NWT REQUIRED            3 OUTER ITERATIONS 
       AND A TOTAL OF          5 INNER ITERATIONS.
    ------------------------------------------------

 NO OUTPUT CONTROL FOR STRESS PERIOD   25   TIME STEP    6
 
 SOLVING FOR HEAD 
                                                   Max.-Head-Change                         Max.-Flux-Residual
  Residual-Control   Outer-Iter.   Inner-Iter.     Column Row Layer    Maximum-Head-Change  Column Row Layer    Maximum-Flux-Residual          L2-NORM 
          0                 1           2             2    1     1       0.1531288012E-02       2    1    1         0.7959353537E-01      0.1096107474E+00
          0                 2           2             2    1     1      -0.1489526842E-03       2    1    1        -0.7959361308E-02      0.1096107361E-01
          0                 3           1             2    1     1       0.1014312416E-04       2    1    1         0.5571554464E-03      0.7672759728E-03

    ------------------------------------------------
       NWT REQUIRED            3 OUTER ITERATIONS 
       AND A TOTAL OF          5 INNER ITERATIONS.
    ------------------------------------------------

 NO OUTPUT CONTROL FOR STRESS PERIOD   25   TIME STEP    7
 
 SOLVING FOR HEAD 
                                                   Max.-Head-Change                         Max.-Flux-Residual
  Residual-Control   Outer-Iter.   Inner-Iter.     Column Row Layer    Maximum-Head-Change  Column Row Layer    Maximum-Flux-Residual          L2-NORM 
          0                 1           2             2    1     1       0.1527737838E-02       2    1    1         0.7940847929E-01      0.1091165881E+00
          0                 2           2             2    1     1      -0.1486073486E-03       2    1    1        -0.7940855655E-02      0.1091166113E-01
          0                 3           1             2    1     1       0.1011960830E-04       2    1    1         0.5558600598E-03      0.7638158515E-03

    ------------------------------------------------
       NWT REQUIRED            3 OUTER ITERATIONS 
       AND A TOTAL OF          5 INNER ITERATIONS.
    ------------------------------------------------

 NO OUTPUT CONTROL FOR STRESS PERIOD   25   TIME STEP    8
 
 SOLVING FOR HEAD 
                                                   Max.-Head-Change                         Max.-Flux-Residual
  Residual-Control   Outer-Iter.   Inner-Iter.     Column Row Layer    Maximum-Head-Change  Column Row Layer    Maximum-Flux-Residual          L2-NORM 
          0                 1           2             2    1     1       0.1524206351E-02       2    1    1         0.7922440612E-01      0.1086313638E+00
          0                 2           2             2    1     1      -0.1482638299E-03       2    1    1        -0.7922448267E-02      0.1086313108E-01
          0                 3           1             2    1     1       0.1009621575E-04       2    1    1         0.5545715342E-03      0.7604210476E-03

    ------------------------------------------------
       NWT REQUIRED            3 OUTER ITERATIONS 
       AND A TOTAL OF          5 INNER ITERATIONS.
    ------------------------------------------------

 NO OUTPUT CONTROL FOR STRESS PERIOD   25   TIME STEP    9
 
 SOLVING FOR HEAD 
                                                   Max.-Head-Change                         Max.-Flux-Residual
  Residual-Control   Outer-Iter.   Inner-Iter.     Column Row Layer    Maximum-Head-Change  Column Row Layer    Maximum-Flux-Residual          L2-NORM 
          0                 1           2             2    1     1       0.1520715056E-02       2    1    1         0.7904242320E-01      0.1081603975E+00
          0                 2           2             2    1     1      -0.1479242217E-03       2    1    1        -0.7904249936E-02      0.1081604353E-01
          0                 3           1             2    1     1       0.1007308993E-04       2    1    1         0.5532976568E-03      0.7571258683E-03

    ------------------------------------------------
       NWT REQUIRED            3 OUTER ITERATIONS 
       AND A TOTAL OF          5 INNER ITERATIONS.
    ------------------------------------------------

 NO OUTPUT CONTROL FOR STRESS PERIOD   25   TIME STEP   10
 
 SOLVING FOR HEAD 
                                                   Max.-Head-Change                         Max.-Flux-Residual
  Residual-Control   Outer-Iter.   Inner-Iter.     Column Row Layer    Maximum-Head-Change  Column Row Layer    Maximum-Flux-Residual          L2-NORM 
          0                 1           2             2    1     1       0.1517220585E-02       2    1    1         0.7886028151E-01      0.1076975656E+00
          0                 2           2             2    1     1      -0.1475843041E-03       2    1    1        -0.7886035704E-02      0.1076975479E-01
          0                 3           1             2    1     1       0.1004994281E-04       2    1    1         0.5520226735E-03      0.7538806948E-03

    ------------------------------------------------
       NWT REQUIRED            3 OUTER ITERATIONS 
       AND A TOTAL OF          5 INNER ITERATIONS.
    ------------------------------------------------

 NO OUTPUT CONTROL FOR STRESS PERIOD   25   TIME STEP   11
 
 SOLVING FOR HEAD 
                                                   Max.-Head-Change                         Max.-Flux-Residual
  Residual-Control   Outer-Iter.   Inner-Iter.     Column Row Layer    Maximum-Head-Change  Column Row Layer    Maximum-Flux-Residual          L2-NORM 
          0                 1           2             2    1     1       0.1513744428E-02       2    1    1         0.7867909648E-01      0.1072407176E+00
          0                 2           2             2    1     1      -0.1472461680E-03       2    1    1        -0.7867917152E-02      0.1072407180E-01
          0                 3           1             2    1     1       0.1002691711E-04       2    1    1         0.5507543609E-03      0.7506826846E-03

    ------------------------------------------------
       NWT REQUIRED            3 OUTER ITERATIONS 
       AND A TOTAL OF          5 INNER ITERATIONS.
    ------------------------------------------------

 NO OUTPUT CONTROL FOR STRESS PERIOD   25   TIME STEP   12
 
 SOLVING FOR HEAD 
                                                   Max.-Head-Change                         Max.-Flux-Residual
  Residual-Control   Outer-Iter.   Inner-Iter.     Column Row Layer    Maximum-Head-Change  Column Row Layer    Maximum-Flux-Residual          L2-NORM 
          0                 1           2             2    1     1       0.1510307971E-02       2    1    1         0.7849998251E-01      0.1067958030E+00
          0                 2           2             2    1     1      -0.1469118938E-03       2    1    1        -0.7850005708E-02      0.1067957597E-01
          0                 3           1             2    1     1       0.1000415435E-04       2    1    1         0.5495005708E-03      0.7475667283E-03

    ------------------------------------------------
       NWT REQUIRED            3 OUTER ITERATIONS 
       AND A TOTAL OF          5 INNER ITERATIONS.
    ------------------------------------------------

 NO OUTPUT CONTROL FOR STRESS PERIOD   25   TIME STEP   13
 
 SOLVING FOR HEAD 
                                                   Max.-Head-Change                         Max.-Flux-Residual
  Residual-Control   Outer-Iter.   Inner-Iter.     Column Row Layer    Maximum-Head-Change  Column Row Layer    Maximum-Flux-Residual          L2-NORM 
          0                 1           2             2    1     1       0.1506867847E-02       2    1    1         0.7832068397E-01      0.1063574186E+00
          0                 2           2             2    1     1      -0.1465772623E-03       2    1    1        -0.7832075804E-02      0.1063574760E-01
          0                 3           1             2    1     1       0.9981366733E-05       2    1    1         0.5482454499E-03      0.7445101595E-03

    ------------------------------------------------
       NWT REQUIRED            3 OUTER ITERATIONS 
       AND A TOTAL OF          5 INNER ITERATIONS.
    ------------------------------------------------

 NO OUTPUT CONTROL FOR STRESS PERIOD   25   TIME STEP   14
 
 SOLVING FOR HEAD 
                                                   Max.-Head-Change                         Max.-Flux-Residual
  Residual-Control   Outer-Iter.   Inner-Iter.     Column Row Layer    Maximum-Head-Change  Column Row Layer    Maximum-Flux-Residual          L2-NORM 
          0                 1           2             2    1     1       0.1503445527E-02       2    1    1         0.7814231678E-01      0.1059307216E+00
          0                 2           2             2    1     1      -0.1462443637E-03       2    1    1        -0.7814239045E-02      0.1059307346E-01
          0                 3           1             2    1     1       0.9958697930E-05       2    1    1         0.5469969056E-03      0.7415162880E-03

    ------------------------------------------------
       NWT REQUIRED            3 OUTER ITERATIONS 
       AND A TOTAL OF          5 INNER ITERATIONS.
    ------------------------------------------------

 NO OUTPUT CONTROL FOR STRESS PERIOD   25   TIME STEP   15
 
 SOLVING FOR HEAD 
                                                   Max.-Head-Change                         Max.-Flux-Residual
  Residual-Control   Outer-Iter.   Inner-Iter.     Column Row Layer    Maximum-Head-Change  Column Row Layer    Maximum-Flux-Residual          L2-NORM 
          0                 1           2             2    1     1       0.1500040855E-02       2    1    1         0.7796487272E-01      0.1055089578E+00
          0                 2           2             2    1     1      -0.1459131810E-03       2    1    1        -0.7796494591E-02      0.1055089845E-01
          0                 3           1             2    1     1       0.9936145571E-05       2    1    1         0.5457547819E-03      0.7385658873E-03

    ------------------------------------------------
       NWT REQUIRED            3 OUTER ITERATIONS 
       AND A TOTAL OF          5 INNER ITERATIONS.
    ------------------------------------------------

 NO OUTPUT CONTROL FOR STRESS PERIOD   25   TIME STEP   16
 
 SOLVING FOR HEAD 
                                                   Max.-Head-Change                         Max.-Flux-Residual
  Residual-Control   Outer-Iter.   Inner-Iter.     Column Row Layer    Maximum-Head-Change  Column Row Layer    Maximum-Flux-Residual          L2-NORM 
          0                 1           2             2    1     1       0.1496653704E-02       2    1    1         0.7778834368E-01      0.1050985456E+00
          0                 2           2             2    1     1      -0.1455837033E-03       2    1    1        -0.7778841646E-02      0.1050985160E-01
          0                 3           1             2    1     1       0.9913709891E-05       2    1    1         0.5445190950E-03      0.7356915953E-03

    ------------------------------------------------
       NWT REQUIRED            3 OUTER ITERATIONS 
       AND A TOTAL OF          5 INNER ITERATIONS.
    ------------------------------------------------

 NO OUTPUT CONTROL FOR STRESS PERIOD   25   TIME STEP   17
 
 SOLVING FOR HEAD 
                                                   Max.-Head-Change                         Max.-Flux-Residual
  Residual-Control   Outer-Iter.   Inner-Iter.     Column Row Layer    Maximum-Head-Change  Column Row Layer    Maximum-Flux-Residual          L2-NORM 
          0                 1           2             2    1     1       0.1493305574E-02       2    1    1         0.7761384484E-01      0.1046925766E+00
          0                 2           2             2    1     1      -0.1452580210E-03       2    1    1        -0.7761391715E-02      0.1046925531E-01
          0                 3           1             2    1     1       0.9891531712E-05       2    1    1         0.5432975960E-03      0.7328420491E-03

    ------------------------------------------------
       NWT REQUIRED            3 OUTER ITERATIONS 
       AND A TOTAL OF          5 INNER ITERATIONS.
    ------------------------------------------------

 NO OUTPUT CONTROL FOR STRESS PERIOD   25   TIME STEP   18
 
 SOLVING FOR HEAD 
                                                   Max.-Head-Change                         Max.-Flux-Residual
  Residual-Control   Outer-Iter.   Inner-Iter.     Column Row Layer    Maximum-Head-Change  Column Row Layer    Maximum-Flux-Residual          L2-NORM 
          0                 1           2             2    1     1       0.1489952998E-02       2    1    1         0.7743912573E-01      0.1042985519E+00
          0                 2           2             2    1     1      -0.1449319058E-03       2    1    1        -0.7743919754E-02      0.1042985333E-01
          0                 3           1             2    1     1       0.9869324422E-05       2    1    1         0.5420745572E-03      0.7301192150E-03

    ------------------------------------------------
       NWT REQUIRED            3 OUTER ITERATIONS 
       AND A TOTAL OF          5 INNER ITERATIONS.
    ------------------------------------------------

 NO OUTPUT CONTROL FOR STRESS PERIOD   25   TIME STEP   19
 
 SOLVING FOR HEAD 
                                                   Max.-Head-Change                         Max.-Flux-Residual
  Residual-Control   Outer-Iter.   Inner-Iter.     Column Row Layer    Maximum-Head-Change  Column Row Layer    Maximum-Flux-Residual          L2-NORM 
          0                 1           2             2    1     1       0.1486617463E-02       2    1    1         0.7726529785E-01      0.1039100719E+00
          0                 2           2             2    1     1      -0.1446074481E-03       2    1    1        -0.7726536906E-02      0.1039100892E-01
          0                 3           1             2    1     1       0.9847230262E-05       2    1    1         0.5408577512E-03      0.7273686798E-03

    ------------------------------------------------
       NWT REQUIRED            3 OUTER ITERATIONS 
       AND A TOTAL OF          5 INNER ITERATIONS.
    ------------------------------------------------

 NO OUTPUT CONTROL FOR STRESS PERIOD   25   TIME STEP   20
 
 SOLVING FOR HEAD 
                                                   Max.-Head-Change                         Max.-Flux-Residual
  Residual-Control   Outer-Iter.   Inner-Iter.     Column Row Layer    Maximum-Head-Change  Column Row Layer    Maximum-Flux-Residual          L2-NORM 
          0                 1           2             2    1     1       0.1483298949E-02       2    1    1         0.7709235350E-01      0.1035254878E+00
          0                 2           2             2    1     1      -0.1442846470E-03       2    1    1        -0.7709242458E-02      0.1035254203E-01
          0                 3           1             2    1     1       0.9825248522E-05       2    1    1         0.5396471286E-03      0.7246775396E-03

    ------------------------------------------------
       NWT REQUIRED            3 OUTER ITERATIONS 
       AND A TOTAL OF          5 INNER ITERATIONS.
    ------------------------------------------------

 NO OUTPUT CONTROL FOR STRESS PERIOD   25   TIME STEP   21
 
 SOLVING FOR HEAD 
                                                   Max.-Head-Change                         Max.-Flux-Residual
  Residual-Control   Outer-Iter.   Inner-Iter.     Column Row Layer    Maximum-Head-Change  Column Row Layer    Maximum-Flux-Residual          L2-NORM 
          0                 1           2             2    1     1       0.1479997181E-02       2    1    1         0.7692029164E-01      0.1031540334E+00
          0                 2           2             2    1     1      -0.1439634743E-03       2    1    1        -0.7692036209E-02      0.1031540517E-01
          0                 3           1             2    1     1       0.9803378019E-05       2    1    1         0.5384427126E-03      0.7220796908E-03

    ------------------------------------------------
       NWT REQUIRED            3 OUTER ITERATIONS 
       AND A TOTAL OF          5 INNER ITERATIONS.
    ------------------------------------------------

 NO OUTPUT CONTROL FOR STRESS PERIOD   25   TIME STEP   22
 
 SOLVING FOR HEAD 
                                                   Max.-Head-Change                         Max.-Flux-Residual
  Residual-Control   Outer-Iter.   Inner-Iter.     Column Row Layer    Maximum-Head-Change  Column Row Layer    Maximum-Flux-Residual          L2-NORM 
          0                 1           2             2    1     1       0.1476712116E-02       2    1    1         0.7674909812E-01      0.1027853531E+00
          0                 2           2             2    1     1      -0.1436439264E-03       2    1    1        -0.7674916820E-02      0.1027853613E-01
          0                 3           1             2    1     1       0.9781618278E-05       2    1    1         0.5372443540E-03      0.7195065659E-03

    ------------------------------------------------
       NWT REQUIRED            3 OUTER ITERATIONS 
       AND A TOTAL OF          5 INNER ITERATIONS.
    ------------------------------------------------

 NO OUTPUT CONTROL FOR STRESS PERIOD   25   TIME STEP   23
 
 SOLVING FOR HEAD 
                                                   Max.-Head-Change                         Max.-Flux-Residual
  Residual-Control   Outer-Iter.   Inner-Iter.     Column Row Layer    Maximum-Head-Change  Column Row Layer    Maximum-Flux-Residual          L2-NORM 
          0                 1           2             2    1     1       0.1473443542E-02       2    1    1         0.7657877062E-01      0.1024235824E+00
          0                 2           2             2    1     1      -0.1433259829E-03       2    1    1        -0.7657884036E-02      0.1024235905E-01
          0                 3           1             2    1     1       0.9759967407E-05       2    1    1         0.5360520602E-03      0.7169654776E-03

    ------------------------------------------------
       NWT REQUIRED            3 OUTER ITERATIONS 
       AND A TOTAL OF          5 INNER ITERATIONS.
    ------------------------------------------------

 NO OUTPUT CONTROL FOR STRESS PERIOD   25   TIME STEP   24
 
 SOLVING FOR HEAD 
                                                   Max.-Head-Change                         Max.-Flux-Residual
  Residual-Control   Outer-Iter.   Inner-Iter.     Column Row Layer    Maximum-Head-Change  Column Row Layer    Maximum-Flux-Residual          L2-NORM 
          0                 1           2             2    1     1       0.1470191387E-02       2    1    1         0.7640929810E-01      0.1020684240E+00
          0                 2           2             2    1     1      -0.1430096358E-03       2    1    1        -0.7640936724E-02      0.1020683922E-01
          0                 3           1             2    1     1       0.9738425169E-05       2    1    1         0.5348657393E-03      0.7144892381E-03

    ------------------------------------------------
       NWT REQUIRED            3 OUTER ITERATIONS 
       AND A TOTAL OF          5 INNER ITERATIONS.
    ------------------------------------------------

 NO OUTPUT CONTROL FOR STRESS PERIOD   25   TIME STEP   25
 
 SOLVING FOR HEAD 
                                                   Max.-Head-Change                         Max.-Flux-Residual
  Residual-Control   Outer-Iter.   Inner-Iter.     Column Row Layer    Maximum-Head-Change  Column Row Layer    Maximum-Flux-Residual          L2-NORM 
          0                 1           2             2    1     1       0.1466955417E-02       2    1    1         0.7624067699E-01      0.1017196763E+00
          0                 2           2             2    1     1      -0.1426948635E-03       2    1    1        -0.7624074575E-02      0.1017196596E-01
          0                 3           1             2    1     1       0.9716990381E-05       2    1    1         0.5336853781E-03      0.7120387772E-03

    ------------------------------------------------
       NWT REQUIRED            3 OUTER ITERATIONS 
       AND A TOTAL OF          5 INNER ITERATIONS.
    ------------------------------------------------

 NO OUTPUT CONTROL FOR STRESS PERIOD   25   TIME STEP   26
 
 SOLVING FOR HEAD 
                                                   Max.-Head-Change                         Max.-Flux-Residual
  Residual-Control   Outer-Iter.   Inner-Iter.     Column Row Layer    Maximum-Head-Change  Column Row Layer    Maximum-Flux-Residual          L2-NORM 
          0                 1           2             2    1     1       0.1463735620E-02       2    1    1         0.7607289496E-01      0.1013783876E+00
          0                 2           2             2    1     1      -0.1423816645E-03       2    1    1        -0.7607296330E-02      0.1013783706E-01
          0                 3           1             2    1     1       0.9695662569E-05       2    1    1         0.5325109143E-03      0.7096490970E-03

    ------------------------------------------------
       NWT REQUIRED            3 OUTER ITERATIONS 
       AND A TOTAL OF          5 INNER ITERATIONS.
    ------------------------------------------------

 NO OUTPUT CONTROL FOR STRESS PERIOD   25   TIME STEP   27
 
 SOLVING FOR HEAD 
                                                   Max.-Head-Change                         Max.-Flux-Residual
  Residual-Control   Outer-Iter.   Inner-Iter.     Column Row Layer    Maximum-Head-Change  Column Row Layer    Maximum-Flux-Residual          L2-NORM 
          0                 1           2             2    1     1       0.1460531833E-02       2    1    1         0.7590595154E-01      0.1010438948E+00
          0                 2           2             2    1     1      -0.1420700232E-03       2    1    1        -0.7590601953E-02      0.1010438775E-01
          0                 3           1             2    1     1       0.9674441260E-05       2    1    1         0.5313423229E-03      0.7075537041E-03

    ------------------------------------------------
       NWT REQUIRED            3 OUTER ITERATIONS 
       AND A TOTAL OF          5 INNER ITERATIONS.
    ------------------------------------------------

 NO OUTPUT CONTROL FOR STRESS PERIOD   25   TIME STEP   28
 
 SOLVING FOR HEAD 
                                                   Max.-Head-Change                         Max.-Flux-Residual
  Residual-Control   Outer-Iter.   Inner-Iter.     Column Row Layer    Maximum-Head-Change  Column Row Layer    Maximum-Flux-Residual          L2-NORM 
          0                 1           2             2    1     1       0.1457343825E-02       2    1    1         0.7573983823E-01      0.1007147359E+00
          0                 2           2             2    1     1      -0.1417599160E-03       2    1    1        -0.7573990578E-02      0.1007147491E-01
          0                 3           1             2    1     1       0.9653324088E-05       2    1    1         0.5301795138E-03      0.7050182018E-03

    ------------------------------------------------
       NWT REQUIRED            3 OUTER ITERATIONS 
       AND A TOTAL OF          5 INNER ITERATIONS.
    ------------------------------------------------

 NO OUTPUT CONTROL FOR STRESS PERIOD   25   TIME STEP   29
 
 SOLVING FOR HEAD 
                                                   Max.-Head-Change                         Max.-Flux-Residual
  Residual-Control   Outer-Iter.   Inner-Iter.     Column Row Layer    Maximum-Head-Change  Column Row Layer    Maximum-Flux-Residual          L2-NORM 
          0                 1           2             2    1     1       0.1454126280E-02       2    1    1         0.7557342072E-01      0.1006105630E+00
          0                 2           2             2    1     1      -0.1414469360E-03       2    1    1        -0.7557348803E-02      0.1006105360E-01
          0                 3           1             2    1     1       0.9632010949E-05       2    1    1         0.5290145701E-03      0.7042729227E-03

    ------------------------------------------------
       NWT REQUIRED            3 OUTER ITERATIONS 
       AND A TOTAL OF          5 INNER ITERATIONS.
    ------------------------------------------------

 NO OUTPUT CONTROL FOR STRESS PERIOD   25   TIME STEP   30



 STREAM LISTING     PERIOD     25   STEP       30

 LAYER ROW COL. STREAM  RCH.  FLOW INTO     FLOW TO   FLOW OUT OF   OVRLND.     DIRECT     STREAM       STREAM     STREAM     STREAM   STREAMBED  STREAMBED
                SEG.NO.  NO.  STRM. RCH.    AQUIFER    STRM. RCH.    RUNOFF     PRECIP       ET          HEAD       DEPTH      WIDTH   CONDCTNC.   GRADIENT

   1    1    1     1     1    1.4942E+01  1.8668E-01   1.4756E+01  0.000E+00  0.000E+00  0.000E+00  1.09406E+03  1.009E+00  1.035E+01  4.656E-02  1.336E+00
   1    2    2     1     2    1.4756E+01  2.8774E-01   1.4468E+01  0.000E+00  0.000E+00  0.000E+00  1.08906E+03  1.004E+00  1.027E+01  7.186E-02  1.335E+00
   1    3    3     1     3    1.4468E+01  2.4407E-01   1.4224E+01  0.000E+00  0.000E+00  0.000E+00  1.08342E+03  9.991E-01  1.017E+01  6.103E-02  1.333E+00
   1    3    4     1     4    1.4224E+01  2.2366E-01   1.4000E+01  0.000E+00  0.000E+00  0.000E+00  1.07840E+03  9.944E-01  1.009E+01  5.599E-02  1.331E+00
   1    4    5     2     1    1.2000E+01  2.9419E-01   1.1706E+01  0.000E+00  0.000E+00  0.000E+00  1.07271E+03  7.717E-01  1.200E+01  7.800E-02  1.257E+00
   1    5    6     2     2    1.1706E+01  2.2569E-01   1.1480E+01  0.000E+00  0.000E+00  0.000E+00  1.06727E+03  7.615E-01  1.200E+01  6.000E-02  1.254E+00
   1    6    6     2     3    1.1480E+01  2.2515E-01   1.1255E+01  0.000E+00  0.000E+00  0.000E+00  1.06255E+03  7.526E-01  1.200E+01  6.000E-02  1.251E+00
   1    7    6     2     4    1.1255E+01  2.2462E-01   1.1031E+01  0.000E+00  0.000E+00  0.000E+00  1.05782E+03  7.436E-01  1.200E+01  6.000E-02  1.248E+00
   1    8    6     2     5    1.1031E+01  2.2408E-01   1.0807E+01  0.000E+00  0.000E+00  0.000E+00  1.05309E+03  7.346E-01  1.200E+01  6.000E-02  1.245E+00
   1    3    5     3     1    2.0000E+00  2.8252E-01   1.7175E+00  0.000E+00  0.000E+00  0.000E+00  1.07555E+03  1.909E+00  9.636E+00  7.227E-02  1.955E+00
   1    3    6     3     2    1.7175E+00  2.4905E-01   1.4684E+00  0.000E+00  0.000E+00  0.000E+00  1.07264E+03  1.727E+00  8.909E+00  6.682E-02  1.864E+00
   1    3    7     3     3    1.4684E+00  1.9718E-01   1.2712E+00  0.000E+00  0.000E+00  0.000E+00  1.06987E+03  1.555E+00  8.218E+00  5.547E-02  1.777E+00
   1    4    8     3     4    1.2712E+00  2.2567E-01   1.0456E+00  0.000E+00  0.000E+00  0.000E+00  1.06682E+03  1.364E+00  7.455E+00  6.709E-02  1.682E+00
   1    5    8     3     5    1.0456E+00  1.5790E-01   8.8768E-01  0.000E+00  0.000E+00  0.000E+00  1.06362E+03  1.164E+00  6.655E+00  4.991E-02  1.582E+00
   1    6    8     3     6    8.8768E-01  5.5980E-02   8.3170E-01  0.000E+00  0.000E+00  0.000E+00  1.06158E+03  1.036E+00  6.145E+00  1.844E-02  1.518E+00
   1    5   10     4     1    1.0000E+01  9.0919E-02   9.9091E+00  0.000E+00  0.000E+00  0.000E+00  1.07836E+03  6.368E-01  1.000E+01  2.500E-02  1.212E+00
   1    5    9     4     2    9.9091E+00  1.8158E-01   9.7275E+00  0.000E+00  0.000E+00  0.000E+00  1.07154E+03  6.315E-01  1.000E+01  5.000E-02  1.211E+00
   1    6    8     4     3    9.7275E+00  1.2689E-01   9.6006E+00  0.000E+00  0.000E+00  0.000E+00  1.06381E+03  6.256E-01  1.000E+01  3.500E-02  1.209E+00
   1    6    8     5     1    1.0432E+01  2.2686E-01   1.0205E+01  0.000E+00  0.000E+00  0.000E+00  1.05868E+03  6.790E-01  1.542E+01  6.166E-02  1.226E+00
   1    7    7     5     2    1.0205E+01  2.7894E-01   9.9265E+00  0.000E+00  0.000E+00  0.000E+00  1.05417E+03  6.732E-01  1.519E+01  7.594E-02  1.224E+00
   1    8    7     5     3    9.9265E+00  1.9221E-01   9.7343E+00  0.000E+00  0.000E+00  0.000E+00  1.04992E+03  6.676E-01  1.497E+01  5.241E-02  1.223E+00
   1    8    6     5     4    9.7343E+00  1.3577E-01   9.5985E+00  0.000E+00  0.000E+00  0.000E+00  1.04691E+03  6.637E-01  1.482E+01  3.706E-02  1.221E+00
   1    9    6     6     1    9.5985E+00  2.2097E-01   9.3776E+00  0.000E+00  0.000E+00  0.000E+00  1.04341E+03  6.828E-01  1.200E+01  6.000E-02  1.228E+00
   1   10    7     6     2    9.3776E+00  2.2039E-01   9.1572E+00  0.000E+00  0.000E+00  0.000E+00  1.03885E+03  6.732E-01  1.200E+01  6.000E-02  1.224E+00
   1   11    7     6     3    9.1572E+00  2.1981E-01   8.9374E+00  0.000E+00  0.000E+00  0.000E+00  1.03430E+03  6.636E-01  1.200E+01  6.000E-02  1.221E+00
   1   12    7     6     4    8.9374E+00  2.1923E-01   8.7181E+00  0.000E+00  0.000E+00  0.000E+00  1.02974E+03  6.539E-01  1.200E+01  6.000E-02  1.218E+00
   1   13    7     6     5    8.7181E+00 -1.1072E-01   8.8288E+00  0.000E+00  0.000E+00  0.000E+00  1.02656E+03  6.514E-01  1.200E+01  2.400E-01 -1.538E-01
   1   14    9     7     1    1.5000E+02  1.3436E+00   1.4866E+02  0.000E+00  0.000E+00  0.000E+00  1.03987E+03  2.288E+00  5.529E+01  5.593E-01  8.008E-01
   1   13    8     7     2    1.4866E+02  1.8487E+00   1.4681E+02  0.000E+00  0.000E+00  0.000E+00  1.03478E+03  2.279E+00  5.526E+01  6.148E-01  1.002E+00
   1   13    7     7     3    1.4681E+02  1.4898E+00   1.4532E+02  0.000E+00  0.000E+00  0.000E+00  1.02969E+03  2.270E+00  5.522E+01  5.584E-01  8.893E-01
   1   13    6     8     1    1.5415E+02  8.4178E-01   1.5330E+02  0.000E+00  0.000E+00  0.000E+00  1.02472E+03  2.843E+00  4.122E+01  4.201E-01  6.680E-01
   1   13    5     8     2    1.5330E+02  1.1167E-01   1.5319E+02  0.000E+00  0.000E+00  0.000E+00  1.01846E+03  2.840E+00  4.117E+01  4.196E-01  8.872E-02
   1   13    4     8     3    1.5319E+02 -2.6415E+00   1.5583E+02  0.000E+00  0.000E+00  0.000E+00  1.01222E+03  2.848E+00  4.130E+01  4.209E+00 -2.092E-01
   1   13    3     8     4    1.5583E+02 -3.7292E+00   1.5956E+02  0.000E+00  0.000E+00  0.000E+00  1.00600E+03  2.870E+00  4.162E+01  4.241E+00 -2.931E-01
   1   13    2     8     5    1.5956E+02 -2.5941E+00   1.6216E+02  0.000E+00  0.000E+00  0.000E+00  9.99767E+02  2.892E+00  4.193E+01  4.273E+00 -2.024E-01
   1   13    1     8     6    1.6216E+02 -1.9795E+00   1.6414E+02  0.000E+00  0.000E+00  0.000E+00  9.94782E+02  2.907E+00  4.215E+01  2.577E+00 -2.560E-01
   1    8    6     9     1    1.0807E+01  0.0000E+00   1.0807E+01  0.000E+00  0.000E+00  0.000E+00  1.08112E+03  2.374E+00  4.000E+00  0.000E+00  1.791E+00
   1    8    5     9     2    1.0807E+01  0.0000E+00   1.0807E+01  0.000E+00  0.000E+00  0.000E+00  1.08062E+03  2.374E+00  4.000E+00  0.000E+00  1.791E+00





UNSATURATED ZONE PACKAGE VOLUMETRIC BUDGET FOR  TIME STEP    30 STRESS PERIOD   25
  ------------------------------------------------------------------------------



     CUMULATIVE VOLUMES      L**3       RATES FOR THIS TIME STEP      L**3/T
     ------------------                 ------------------------

           IN:                                      IN:
           ---                                      ---
        INFILTRATION =    53567420.9458          INFILTRATION =           0.8475

          OUT:                                     OUT:
          ----                                     ----
              UZF ET =    52309653.4609                UZF ET =           0.7500
        UZF RECHARGE =       73224.0000          UZF RECHARGE =       0.0000E+00

            IN - OUT =     1184543.4849              IN - OUT =       9.7500E-02

          STORAGE:                                 STORAGE:
          --------                                 --------
      STORAGE CHANGE =     1184543.7008        STORAGE CHANGE =       9.7500E-02

 PERCENT DISCREPANCY IS DIFFERENCE BETWEEN IN-OUT MINUS CHANGE IN STORAGE
 DIVIDED BY THE AVERAGE OF IN AND OUT TIMES 100

 PERCENT DISCREPANCY =           0.00     PERCENT DISCREPANCY =           0.00






1
  VOLUMETRIC BUDGET FOR ENTIRE MODEL AT END OF TIME STEP   30, STRESS PERIOD  25
  ------------------------------------------------------------------------------

     CUMULATIVE VOLUMES      L**3       RATES FOR THIS TIME STEP      L**3/T
     ------------------                 ------------------------

           IN:                                      IN:
           ---                                      ---
             STORAGE     =    24175506.0000               STORAGE     =           0.2311
       CONSTANT HEAD     =           0.0000         CONSTANT HEAD     =           0.0000
     HEAD DEP BOUNDS     =    18079358.0000       HEAD DEP BOUNDS     =           0.2863
      STREAM LEAKAGE     =   738202496.0000        STREAM LEAKAGE     =          11.0534
        UZF RECHARGE     =       73223.9531          UZF RECHARGE     =           0.0000
               GW ET     =           0.0000                 GW ET     =           0.0000
     SURFACE LEAKAGE     =           0.0000       SURFACE LEAKAGE     =           0.0000

                TOTAL IN =   780530560.0000                  TOTAL IN =          11.5708

          OUT:                                     OUT:
          ----                                     ----
             STORAGE     =    61931652.0000               STORAGE     =           0.2288
       CONSTANT HEAD     =           0.0000         CONSTANT HEAD     =           0.0000
     HEAD DEP BOUNDS     =    18135676.0000       HEAD DEP BOUNDS     =           0.2869
      STREAM LEAKAGE     =   700473408.0000        STREAM LEAKAGE     =          11.0551
        UZF RECHARGE     =           0.0000          UZF RECHARGE     =           0.0000
               GW ET     =           0.0000                 GW ET     =           0.0000
     SURFACE LEAKAGE     =           0.0000       SURFACE LEAKAGE     =           0.0000

               TOTAL OUT =   780540736.0000                 TOTAL OUT =          11.5708

                IN - OUT =      -10176.0000                  IN - OUT =       4.7684E-06

     PERCENT DISCREPANCY =          -0.00         PERCENT DISCREPANCY =           0.00






         TIME SUMMARY AT END OF TIME STEP   30 IN STRESS PERIOD   25
                    SECONDS     MINUTES      HOURS       DAYS        YEARS
                    -----------------------------------------------------------
   TIME STEP LENGTH  87667.      1461.1      24.352      1.0147     2.77799E-03
 STRESS PERIOD TIME 2.63000E+06  43833.      730.56      30.440     8.33397E-02
         TOTAL TIME 6.32067E+07 1.05345E+06  17557.      731.56      2.0029    
1
1
                            STRESS PERIOD NO.   26, LENGTH =   2630000.    
                            -----------------------------------------------

                              NUMBER OF TIME STEPS =    30

                               MULTIPLIER FOR DELT =     1.000

                            INITIAL TIME STEP SIZE =   87666.66    

 REUSING NON-PARAMETER GHB CELLS FROM LAST STRESS PERIOD

      2 GHB CELLS

 REUSING STREAM SEGMENT DATA FROM LAST STRESS PERIOD



            AREAL INFILTRATION RATE
 READING ON UNIT   19 WITH FORMAT: (FREE)              

            1           2           3           4           5           6           7           8           9          10
 ........................................................................................................................
   1   1.0000E-10  2.0000E-10   0.000       0.000       0.000       0.000       0.000       0.000       0.000       0.000    
   2   2.0000E-10  1.0000E-10  2.0000E-10   0.000       0.000      8.0000E-10  8.0000E-10  5.0000E-10   0.000       0.000    
   3    0.000      5.0000E-10  1.0000E-10  1.0000E-10  8.0000E-10  8.0000E-10  5.0000E-10  5.0000E-10   0.000       0.000    
   4   8.0000E-10  5.0000E-10  1.0000E-10  1.0000E-10  1.0000E-10  1.0000E-10  1.0000E-10  1.0000E-10  2.0000E-10   0.000    
   5   8.0000E-10  5.0000E-10  1.0000E-10  1.0000E-10  1.0000E-10  1.0000E-10  1.0000E-10  1.0000E-10  1.0000E-10  1.0000E-10
   6   8.0000E-10  5.0000E-10  5.0000E-10  2.0000E-10  2.0000E-10  1.0000E-10  1.0000E-10  1.0000E-10  1.0000E-10  5.0000E-10
   7   8.0000E-10  5.0000E-10  5.0000E-10  2.0000E-10  2.0000E-10  1.0000E-10  1.0000E-10  2.0000E-10  2.0000E-10   0.000    
   8    0.000      5.0000E-10  5.0000E-10  2.0000E-10  2.0000E-10  1.0000E-10  1.0000E-10  2.0000E-10  5.0000E-10   0.000    
   9    0.000      5.0000E-10  5.0000E-10  2.0000E-10  2.0000E-10  1.0000E-10  1.0000E-10  2.0000E-10  5.0000E-10   0.000    
  10    0.000      5.0000E-10  5.0000E-10  2.0000E-10  2.0000E-10  1.0000E-10  1.0000E-10  2.0000E-10  5.0000E-10  8.0000E-10
  11    0.000      1.0000E-10  1.0000E-10  1.0000E-10  1.0000E-10  1.0000E-10  1.0000E-10  2.0000E-10  5.0000E-10   0.000    
  12   1.0000E-10  1.0000E-10  1.0000E-10  1.0000E-10  1.0000E-10  1.0000E-10  1.0000E-10  1.0000E-10  2.0000E-10   0.000    
  13   1.0000E-10  1.0000E-10  2.0000E-10  2.0000E-10  2.0000E-10  2.0000E-10  2.0000E-10  1.0000E-10  1.0000E-10   0.000    
  14    0.000      2.0000E-10  5.0000E-10  5.0000E-10  5.0000E-10  5.0000E-10  5.0000E-10  2.0000E-10  1.0000E-10   0.000    
  15    0.000       0.000      8.0000E-10  8.0000E-10  8.0000E-10  8.0000E-10   0.000       0.000       0.000       0.000    

                  ET RATE =  5.000000E-10

 USING ET EXTINCTION DEPTH FROM PREVIOUS STRESS PERIOD. CURRENT PERIOD IS:      26

 USING EXTINCTION WATER CONTENT FROM PREVIOUS STRESS PERIOD. CURRENT PERIOD IS:      26

 USING AIR ENTRY PRESSURE FROM PREVIOUS STRESS PERIOD. CURRENT PERIOD IS:      26

 USING ROOT PRESSURE HEAD FROM PREVIOUS STRESS PERIOD. CURRENT PERIOD IS:      26

 USING ROOT ACTIVITY FROM PREVIOUS STRESS PERIOD. CURRENT PERIOD IS:      26
 
 SOLVING FOR HEAD 
                                                   Max.-Head-Change                         Max.-Flux-Residual
  Residual-Control   Outer-Iter.   Inner-Iter.     Column Row Layer    Maximum-Head-Change  Column Row Layer    Maximum-Flux-Residual          L2-NORM 
          0                 1           2             2    1     1       0.1450658841E-02       2    1    1         0.7540771596E-01      0.1038283446E+00
          0                 2           2             2    1     1      -0.1411096528E-03       2    1    1        -0.7540778598E-02      0.1038283110E-01
          0                 3           1             2    1     1       0.9609042755E-05       2    1    1         0.5278546477E-03      0.7267975264E-03

    ------------------------------------------------
       NWT REQUIRED            3 OUTER ITERATIONS 
       AND A TOTAL OF          5 INNER ITERATIONS.
    ------------------------------------------------

 NO OUTPUT CONTROL FOR STRESS PERIOD   26   TIME STEP    1
 
 SOLVING FOR HEAD 
                                                   Max.-Head-Change                         Max.-Flux-Residual
  Residual-Control   Outer-Iter.   Inner-Iter.     Column Row Layer    Maximum-Head-Change  Column Row Layer    Maximum-Flux-Residual          L2-NORM 
          0                 1           2             2    1     1       0.1448067417E-02       2    1    1         0.7522792794E-01      0.9820747593E-01
          0                 2           2             2    1     1      -0.1408575617E-03       2    1    1        -0.7522798733E-02      0.9820745954E-02
          0                 3           1             2    1     1       0.9591877079E-05       2    1    1         0.5265960735E-03      0.6874522059E-03

    ------------------------------------------------
       NWT REQUIRED            3 OUTER ITERATIONS 
       AND A TOTAL OF          5 INNER ITERATIONS.
    ------------------------------------------------

 NO OUTPUT CONTROL FOR STRESS PERIOD   26   TIME STEP    2
 
 SOLVING FOR HEAD 
                                                   Max.-Head-Change                         Max.-Flux-Residual
  Residual-Control   Outer-Iter.   Inner-Iter.     Column Row Layer    Maximum-Head-Change  Column Row Layer    Maximum-Flux-Residual          L2-NORM 
          0                 1           2             2    1     1       0.1445544197E-02       2    1    1         0.7509357883E-01      0.9826509710E-01
          0                 2           2             2    1     1      -0.1406121200E-03       2    1    1        -0.7509363721E-02      0.9826504666E-02
          0                 3           1             2    1     1       0.9575163686E-05       2    1    1         0.5256556404E-03      0.6878542888E-03

    ------------------------------------------------
       NWT REQUIRED            3 OUTER ITERATIONS 
       AND A TOTAL OF          5 INNER ITERATIONS.
    ------------------------------------------------

 NO OUTPUT CONTROL FOR STRESS PERIOD   26   TIME STEP    3
 
 SOLVING FOR HEAD 
                                                   Max.-Head-Change                         Max.-Flux-Residual
  Residual-Control   Outer-Iter.   Inner-Iter.     Column Row Layer    Maximum-Head-Change  Column Row Layer    Maximum-Flux-Residual          L2-NORM 
          0                 1           2             2    1     1       0.1443031742E-02       2    1    1         0.7496275325E-01      0.9810318034E-01
          0                 2           2             2    1     1      -0.1403677261E-03       2    1    1        -0.7496281129E-02      0.9810316595E-02
          0                 3           1             2    1     1       0.9558521532E-05       2    1    1         0.5247398558E-03      0.6867218597E-03

    ------------------------------------------------
       NWT REQUIRED            3 OUTER ITERATIONS 
       AND A TOTAL OF          5 INNER ITERATIONS.
    ------------------------------------------------

 NO OUTPUT CONTROL FOR STRESS PERIOD   26   TIME STEP    4
 
 SOLVING FOR HEAD 
                                                   Max.-Head-Change                         Max.-Flux-Residual
  Residual-Control   Outer-Iter.   Inner-Iter.     Column Row Layer    Maximum-Head-Change  Column Row Layer    Maximum-Flux-Residual          L2-NORM 
          0                 1           2             2    1     1       0.1440508295E-02       2    1    1         0.7483136240E-01      0.9794302113E-01
          0                 2           2             2    1     1      -0.1401222629E-03       2    1    1        -0.7483142019E-02      0.9794297516E-02
          0                 3           1             2    1     1       0.9541806245E-05       2    1    1         0.5238201135E-03      0.6855992069E-03

    ------------------------------------------------
       NWT REQUIRED            3 OUTER ITERATIONS 
       AND A TOTAL OF          5 INNER ITERATIONS.
    ------------------------------------------------

 NO OUTPUT CONTROL FOR STRESS PERIOD   26   TIME STEP    5
 
 SOLVING FOR HEAD 
                                                   Max.-Head-Change                         Max.-Flux-Residual
  Residual-Control   Outer-Iter.   Inner-Iter.     Column Row Layer    Maximum-Head-Change  Column Row Layer    Maximum-Flux-Residual          L2-NORM 
          0                 1           2             2    1     1       0.1438017029E-02       2    1    1         0.7470164660E-01      0.9778953384E-01
          0                 2           2             2    1     1      -0.1398799305E-03       2    1    1        -0.7470170406E-02      0.9778944689E-02
          0                 3           1             2    1     1       0.9525304438E-05       2    1    1         0.5229121111E-03      0.6845239125E-03

    ------------------------------------------------
       NWT REQUIRED            3 OUTER ITERATIONS 
       AND A TOTAL OF          5 INNER ITERATIONS.
    ------------------------------------------------

 NO OUTPUT CONTROL FOR STRESS PERIOD   26   TIME STEP    6
 
 SOLVING FOR HEAD 
                                                   Max.-Head-Change                         Max.-Flux-Residual
  Residual-Control   Outer-Iter.   Inner-Iter.     Column Row Layer    Maximum-Head-Change  Column Row Layer    Maximum-Flux-Residual          L2-NORM 
          0                 1           2             2    1     1       0.1435536225E-02       2    1    1         0.7457247689E-01      0.9763759262E-01
          0                 2           2             2    1     1      -0.1396386154E-03       2    1    1        -0.7457253416E-02      0.9763755071E-02
          0                 3           1             2    1     1       0.9508871503E-05       2    1    1         0.5220079076E-03      0.6834666918E-03

    ------------------------------------------------
       NWT REQUIRED            3 OUTER ITERATIONS 
       AND A TOTAL OF          5 INNER ITERATIONS.
    ------------------------------------------------

 NO OUTPUT CONTROL FOR STRESS PERIOD   26   TIME STEP    7
 
 SOLVING FOR HEAD 
                                                   Max.-Head-Change                         Max.-Flux-Residual
  Residual-Control   Outer-Iter.   Inner-Iter.     Column Row Layer    Maximum-Head-Change  Column Row Layer    Maximum-Flux-Residual          L2-NORM 
          0                 1           2             2    1     1       0.1433065912E-02       2    1    1         0.7444384962E-01      0.9748856126E-01
          0                 2           2             2    1     1      -0.1393983207E-03       2    1    1        -0.7444390657E-02      0.9748852535E-02
          0                 3           1             2    1     1       0.9492508386E-05       2    1    1         0.5211075133E-03      0.6825000703E-03

    ------------------------------------------------
       NWT REQUIRED            3 OUTER ITERATIONS 
       AND A TOTAL OF          5 INNER ITERATIONS.
    ------------------------------------------------

 NO OUTPUT CONTROL FOR STRESS PERIOD   26   TIME STEP    8
 
 SOLVING FOR HEAD 
                                                   Max.-Head-Change                         Max.-Flux-Residual
  Residual-Control   Outer-Iter.   Inner-Iter.     Column Row Layer    Maximum-Head-Change  Column Row Layer    Maximum-Flux-Residual          L2-NORM 
          0                 1           2             2    1     1       0.1430584321E-02       2    1    1         0.7431464360E-01      0.9734206328E-01
          0                 2           2             2    1     1      -0.1391569295E-03       2    1    1        -0.7431470042E-02      0.9734201638E-02
          0                 3           1             2    1     1       0.9476070481E-05       2    1    1         0.5202030721E-03      0.6813915049E-03

    ------------------------------------------------
       NWT REQUIRED            3 OUTER ITERATIONS 
       AND A TOTAL OF          5 INNER ITERATIONS.
    ------------------------------------------------

 NO OUTPUT CONTROL FOR STRESS PERIOD   26   TIME STEP    9
 
 SOLVING FOR HEAD 
                                                   Max.-Head-Change                         Max.-Flux-Residual
  Residual-Control   Outer-Iter.   Inner-Iter.     Column Row Layer    Maximum-Head-Change  Column Row Layer    Maximum-Flux-Residual          L2-NORM 
          0                 1           2             2    1     1       0.1428134635E-02       2    1    1         0.7418709820E-01      0.9719831133E-01
          0                 2           2             2    1     1      -0.1389186414E-03       2    1    1        -0.7418715473E-02      0.9719941342E-02
          0                 3           1             2    1     1       0.9459843688E-05       2    1    1         0.5193102499E-03      0.6813430308E-03

    ------------------------------------------------
       NWT REQUIRED            3 OUTER ITERATIONS 
       AND A TOTAL OF          5 INNER ITERATIONS.
    ------------------------------------------------

 NO OUTPUT CONTROL FOR STRESS PERIOD   26   TIME STEP   10
 
 SOLVING FOR HEAD 
                                                   Max.-Head-Change                         Max.-Flux-Residual
  Residual-Control   Outer-Iter.   Inner-Iter.     Column Row Layer    Maximum-Head-Change  Column Row Layer    Maximum-Flux-Residual          L2-NORM 
          0                 1           2             2    1     1       0.1425695234E-02       2    1    1         0.7406008441E-01      0.9705693256E-01
          0                 2           2             2    1     1      -0.1386813536E-03       2    1    1        -0.7406014056E-02      0.9705686625E-02
          0                 3           1             2    1     1       0.9443685530E-05       2    1    1         0.5184211502E-03      0.6794001413E-03

    ------------------------------------------------
       NWT REQUIRED            3 OUTER ITERATIONS 
       AND A TOTAL OF          5 INNER ITERATIONS.
    ------------------------------------------------

 NO OUTPUT CONTROL FOR STRESS PERIOD   26   TIME STEP   11
 
 SOLVING FOR HEAD 
                                                   Max.-Head-Change                         Max.-Flux-Residual
  Residual-Control   Outer-Iter.   Inner-Iter.     Column Row Layer    Maximum-Head-Change  Column Row Layer    Maximum-Flux-Residual          L2-NORM 
          0                 1           2             2    1     1       0.1423244348E-02       2    1    1         0.7393248102E-01      0.9691816630E-01
          0                 2           2             2    1     1      -0.1384429487E-03       2    1    1        -0.7393253692E-02      0.9691817658E-02
          0                 3           1             2    1     1       0.9427451164E-05       2    1    1         0.5175279261E-03      0.6784284507E-03

    ------------------------------------------------
       NWT REQUIRED            3 OUTER ITERATIONS 
       AND A TOTAL OF          5 INNER ITERATIONS.
    ------------------------------------------------

 NO OUTPUT CONTROL FOR STRESS PERIOD   26   TIME STEP   12
 
 SOLVING FOR HEAD 
                                                   Max.-Head-Change                         Max.-Flux-Residual
  Residual-Control   Outer-Iter.   Inner-Iter.     Column Row Layer    Maximum-Head-Change  Column Row Layer    Maximum-Flux-Residual          L2-NORM 
          0                 1           2             2    1     1       0.1420825267E-02       2    1    1         0.7380652780E-01      0.9678114024E-01
          0                 2           2             2    1     1      -0.1382076378E-03       2    1    1        -0.7380658341E-02      0.9678105084E-02
          0                 3           1             2    1     1       0.9411427437E-05       2    1    1         0.5166462498E-03      0.6774675459E-03

    ------------------------------------------------
       NWT REQUIRED            3 OUTER ITERATIONS 
       AND A TOTAL OF          5 INNER ITERATIONS.
    ------------------------------------------------

 NO OUTPUT CONTROL FOR STRESS PERIOD   26   TIME STEP   13
 
 SOLVING FOR HEAD 
                                                   Max.-Head-Change                         Max.-Flux-Residual
  Residual-Control   Outer-Iter.   Inner-Iter.     Column Row Layer    Maximum-Head-Change  Column Row Layer    Maximum-Flux-Residual          L2-NORM 
          0                 1           2             2    1     1       0.1418394567E-02       2    1    1         0.7367997791E-01      0.9664633144E-01
          0                 2           2             2    1     1      -0.1379711966E-03       2    1    1        -0.7368003328E-02      0.9664633301E-02
          0                 3           1             2    1     1       0.9395326791E-05       2    1    1         0.5157604066E-03      0.6765226345E-03

    ------------------------------------------------
       NWT REQUIRED            3 OUTER ITERATIONS 
       AND A TOTAL OF          5 INNER ITERATIONS.
    ------------------------------------------------

 NO OUTPUT CONTROL FOR STRESS PERIOD   26   TIME STEP   14
 
 SOLVING FOR HEAD 
                                                   Max.-Head-Change                         Max.-Flux-Residual
  Residual-Control   Outer-Iter.   Inner-Iter.     Column Row Layer    Maximum-Head-Change  Column Row Layer    Maximum-Flux-Residual          L2-NORM 
          0                 1           2             2    1     1       0.1415995442E-02       2    1    1         0.7355507137E-01      0.9651368939E-01
          0                 2           2             2    1     1      -0.1377378269E-03       2    1    1        -0.7355512653E-02      0.9651366573E-02
          0                 3           1             2    1     1       0.9379434891E-05       2    1    1         0.5148860564E-03      0.6755945497E-03

    ------------------------------------------------
       NWT REQUIRED            3 OUTER ITERATIONS 
       AND A TOTAL OF          5 INNER ITERATIONS.
    ------------------------------------------------

 NO OUTPUT CONTROL FOR STRESS PERIOD   26   TIME STEP   15
 
 SOLVING FOR HEAD 
                                                   Max.-Head-Change                         Max.-Flux-Residual
  Residual-Control   Outer-Iter.   Inner-Iter.     Column Row Layer    Maximum-Head-Change  Column Row Layer    Maximum-Flux-Residual          L2-NORM 
          0                 1           2             2    1     1       0.1413584665E-02       2    1    1         0.7342955611E-01      0.9638141077E-01
          0                 2           2             2    1     1      -0.1375033235E-03       2    1    1        -0.7342961089E-02      0.9638138520E-02
          0                 3           1             2    1     1       0.9363466072E-05       2    1    1         0.5140074490E-03      0.6746693692E-03

    ------------------------------------------------
       NWT REQUIRED            3 OUTER ITERATIONS 
       AND A TOTAL OF          5 INNER ITERATIONS.
    ------------------------------------------------

 NO OUTPUT CONTROL FOR STRESS PERIOD   26   TIME STEP   16
 
 SOLVING FOR HEAD 
                                                   Max.-Head-Change                         Max.-Flux-Residual
  Residual-Control   Outer-Iter.   Inner-Iter.     Column Row Layer    Maximum-Head-Change  Column Row Layer    Maximum-Flux-Residual          L2-NORM 
          0                 1           2             2    1     1       0.1411205337E-02       2    1    1         0.7330568267E-01      0.9625281717E-01
          0                 2           2             2    1     1      -0.1372718794E-03       2    1    1        -0.7330573733E-02      0.9625286254E-02
          0                 3           1             2    1     1       0.9347705525E-05       2    1    1         0.5131403223E-03      0.6737744275E-03

    ------------------------------------------------
       NWT REQUIRED            3 OUTER ITERATIONS 
       AND A TOTAL OF          5 INNER ITERATIONS.
    ------------------------------------------------

 NO OUTPUT CONTROL FOR STRESS PERIOD   26   TIME STEP   17
 
 SOLVING FOR HEAD 
                                                   Max.-Head-Change                         Max.-Flux-Residual
  Residual-Control   Outer-Iter.   Inner-Iter.     Column Row Layer    Maximum-Head-Change  Column Row Layer    Maximum-Flux-Residual          L2-NORM 
          0                 1           2             2    1     1       0.1408814227E-02       2    1    1         0.7318119375E-01      0.9612313924E-01
          0                 2           2             2    1     1      -0.1370392895E-03       2    1    1        -0.7318124822E-02      0.9612307047E-02
          0                 3           1             2    1     1       0.9331867113E-05       2    1    1         0.5122689084E-03      0.6728606005E-03

    ------------------------------------------------
       NWT REQUIRED            3 OUTER ITERATIONS 
       AND A TOTAL OF          5 INNER ITERATIONS.
    ------------------------------------------------

 NO OUTPUT CONTROL FOR STRESS PERIOD   26   TIME STEP   18
 
 SOLVING FOR HEAD 
                                                   Max.-Head-Change                         Max.-Flux-Residual
  Residual-Control   Outer-Iter.   Inner-Iter.     Column Row Layer    Maximum-Head-Change  Column Row Layer    Maximum-Flux-Residual          L2-NORM 
          0                 1           2             2    1     1       0.1406454441E-02       2    1    1         0.7305834012E-01      0.9599635281E-01
          0                 2           2             2    1     1      -0.1368097460E-03       2    1    1        -0.7305839420E-02      0.9599686014E-02
          0                 3           1             2    1     1       0.9316236027E-05       2    1    1         0.5114089313E-03      0.6729645657E-03

    ------------------------------------------------
       NWT REQUIRED            3 OUTER ITERATIONS 
       AND A TOTAL OF          5 INNER ITERATIONS.
    ------------------------------------------------

 NO OUTPUT CONTROL FOR STRESS PERIOD   26   TIME STEP   19
 
 SOLVING FOR HEAD 
                                                   Max.-Head-Change                         Max.-Flux-Residual
  Residual-Control   Outer-Iter.   Inner-Iter.     Column Row Layer    Maximum-Head-Change  Column Row Layer    Maximum-Flux-Residual          L2-NORM 
          0                 1           2             2    1     1       0.1404082773E-02       2    1    1         0.7293486434E-01      0.9587117831E-01
          0                 2           2             2    1     1      -0.1365790469E-03       2    1    1        -0.7293491815E-02      0.9587116877E-02
          0                 3           1             2    1     1       0.9300526365E-05       2    1    1         0.5105445950E-03      0.6710960023E-03

    ------------------------------------------------
       NWT REQUIRED            3 OUTER ITERATIONS 
       AND A TOTAL OF          5 INNER ITERATIONS.
    ------------------------------------------------

 NO OUTPUT CONTROL FOR STRESS PERIOD   26   TIME STEP   20
 
 SOLVING FOR HEAD 
                                                   Max.-Head-Change                         Max.-Flux-Residual
  Residual-Control   Outer-Iter.   Inner-Iter.     Column Row Layer    Maximum-Head-Change  Column Row Layer    Maximum-Flux-Residual          L2-NORM 
          0                 1           2             2    1     1       0.1401742307E-02       2    1    1         0.7281301889E-01      0.9574868224E-01
          0                 2           2             2    1     1      -0.1363513831E-03       2    1    1        -0.7281307254E-02      0.9574863127E-02
          0                 3           1             2    1     1       0.9285023319E-05       2    1    1         0.5096916758E-03      0.6702446309E-03

    ------------------------------------------------
       NWT REQUIRED            3 OUTER ITERATIONS 
       AND A TOTAL OF          5 INNER ITERATIONS.
    ------------------------------------------------

 NO OUTPUT CONTROL FOR STRESS PERIOD   26   TIME STEP   21
 
 SOLVING FOR HEAD 
                                                   Max.-Head-Change                         Max.-Flux-Residual
  Residual-Control   Outer-Iter.   Inner-Iter.     Column Row Layer    Maximum-Head-Change  Column Row Layer    Maximum-Flux-Residual          L2-NORM 
          0                 1           2             2    1     1       0.1399389806E-02       2    1    1         0.7269054471E-01      0.9562651905E-01
          0                 2           2             2    1     1      -0.1361225483E-03       2    1    1        -0.7269059803E-02      0.9562649213E-02
          0                 3           1             2    1     1       0.9269440514E-05       2    1    1         0.5088343526E-03      0.6693869222E-03

    ------------------------------------------------
       NWT REQUIRED            3 OUTER ITERATIONS 
       AND A TOTAL OF          5 INNER ITERATIONS.
    ------------------------------------------------

 NO OUTPUT CONTROL FOR STRESS PERIOD   26   TIME STEP   22
 
 SOLVING FOR HEAD 
                                                   Max.-Head-Change                         Max.-Flux-Residual
  Residual-Control   Outer-Iter.   Inner-Iter.     Column Row Layer    Maximum-Head-Change  Column Row Layer    Maximum-Flux-Residual          L2-NORM 
          0                 1           2             2    1     1       0.1397068484E-02       2    1    1         0.7256969310E-01      0.9550503666E-01
          0                 2           2             2    1     1      -0.1358967469E-03       2    1    1        -0.7256974625E-02      0.9550500345E-02
          0                 3           1             2    1     1       0.9254064088E-05       2    1    1         0.5079883857E-03      0.6685366781E-03

    ------------------------------------------------
       NWT REQUIRED            3 OUTER ITERATIONS 
       AND A TOTAL OF          5 INNER ITERATIONS.
    ------------------------------------------------

 NO OUTPUT CONTROL FOR STRESS PERIOD   26   TIME STEP   23
 
 SOLVING FOR HEAD 
                                                   Max.-Head-Change                         Max.-Flux-Residual
  Residual-Control   Outer-Iter.   Inner-Iter.     Column Row Layer    Maximum-Head-Change  Column Row Layer    Maximum-Flux-Residual          L2-NORM 
          0                 1           2             2    1     1       0.1394734905E-02       2    1    1         0.7244821148E-01      0.9538416899E-01
          0                 2           2             2    1     1      -0.1356697526E-03       2    1    1        -0.7244826426E-02      0.9538413790E-02
          0                 3           1             2    1     1       0.9238606484E-05       2    1    1         0.5071380086E-03      0.6676867642E-03

    ------------------------------------------------
       NWT REQUIRED            3 OUTER ITERATIONS 
       AND A TOTAL OF          5 INNER ITERATIONS.
    ------------------------------------------------

 NO OUTPUT CONTROL FOR STRESS PERIOD   26   TIME STEP   24
 
 SOLVING FOR HEAD 
                                                   Max.-Head-Change                         Max.-Flux-Residual
  Residual-Control   Outer-Iter.   Inner-Iter.     Column Row Layer    Maximum-Head-Change  Column Row Layer    Maximum-Flux-Residual          L2-NORM 
          0                 1           2             2    1     1       0.1392432389E-02       2    1    1         0.7232834109E-01      0.9526687417E-01
          0                 2           2             2    1     1      -0.1354457802E-03       2    1    1        -0.7232839367E-02      0.9526680359E-02
          0                 3           1             2    1     1       0.9223354785E-05       2    1    1         0.5062989102E-03      0.6668686812E-03

    ------------------------------------------------
       NWT REQUIRED            3 OUTER ITERATIONS 
       AND A TOTAL OF          5 INNER ITERATIONS.
    ------------------------------------------------

 NO OUTPUT CONTROL FOR STRESS PERIOD   26   TIME STEP   25
 
 SOLVING FOR HEAD 
                                                   Max.-Head-Change                         Max.-Flux-Residual
  Residual-Control   Outer-Iter.   Inner-Iter.     Column Row Layer    Maximum-Head-Change  Column Row Layer    Maximum-Flux-Residual          L2-NORM 
          0                 1           2             2    1     1       0.1390117497E-02       2    1    1         0.7220783445E-01      0.9514875911E-01
          0                 2           2             2    1     1      -0.1352206043E-03       2    1    1        -0.7220788694E-02      0.9514875930E-02
          0                 3           1             2    1     1       0.9208021197E-05       2    1    1         0.5054553684E-03      0.6660434788E-03

    ------------------------------------------------
       NWT REQUIRED            3 OUTER ITERATIONS 
       AND A TOTAL OF          5 INNER ITERATIONS.
    ------------------------------------------------

 NO OUTPUT CONTROL FOR STRESS PERIOD   26   TIME STEP   26
 
 SOLVING FOR HEAD 
                                                   Max.-Head-Change                         Max.-Flux-Residual
  Residual-Control   Outer-Iter.   Inner-Iter.     Column Row Layer    Maximum-Head-Change  Column Row Layer    Maximum-Flux-Residual          L2-NORM 
          0                 1           2             2    1     1       0.1387811936E-02       2    1    1         0.7208780950E-01      0.9503188907E-01
          0                 2           2             2    1     1      -0.1349963360E-03       2    1    1        -0.7208786186E-02      0.9503188817E-02
          0                 3           1             2    1     1       0.9192749617E-05       2    1    1         0.5046152049E-03      0.6652268786E-03

    ------------------------------------------------
       NWT REQUIRED            3 OUTER ITERATIONS 
       AND A TOTAL OF          5 INNER ITERATIONS.
    ------------------------------------------------

 NO OUTPUT CONTROL FOR STRESS PERIOD   26   TIME STEP   27
 
 SOLVING FOR HEAD 
                                                   Max.-Head-Change                         Max.-Flux-Residual
  Residual-Control   Outer-Iter.   Inner-Iter.     Column Row Layer    Maximum-Head-Change  Column Row Layer    Maximum-Flux-Residual          L2-NORM 
          0                 1           2             2    1     1       0.1385537263E-02       2    1    1         0.7196939189E-01      0.9491686840E-01
          0                 2           2             2    1     1      -0.1347750720E-03       2    1    1        -0.7196944382E-02      0.9491683935E-02
          0                 3           1             2    1     1       0.9177682760E-05       2    1    1         0.5037862904E-03      0.6644153667E-03

    ------------------------------------------------
       NWT REQUIRED            3 OUTER ITERATIONS 
       AND A TOTAL OF          5 INNER ITERATIONS.
    ------------------------------------------------

 NO OUTPUT CONTROL FOR STRESS PERIOD   26   TIME STEP   28
 
 SOLVING FOR HEAD 
                                                   Max.-Head-Change                         Max.-Flux-Residual
  Residual-Control   Outer-Iter.   Inner-Iter.     Column Row Layer    Maximum-Head-Change  Column Row Layer    Maximum-Flux-Residual          L2-NORM 
          0                 1           2             2    1     1       0.1383250038E-02       2    1    1         0.7185032877E-01      0.9480325100E-01
          0                 2           2             2    1     1      -0.1345525870E-03       2    1    1        -0.7185038054E-02      0.9480316730E-02
          0                 3           1             2    1     1       0.9162532121E-05       2    1    1         0.5029528461E-03      0.6636181895E-03

    ------------------------------------------------
       NWT REQUIRED            3 OUTER ITERATIONS 
       AND A TOTAL OF          5 INNER ITERATIONS.
    ------------------------------------------------

 NO OUTPUT CONTROL FOR STRESS PERIOD   26   TIME STEP   29
 
 SOLVING FOR HEAD 
                                                   Max.-Head-Change                         Max.-Flux-Residual
  Residual-Control   Outer-Iter.   Inner-Iter.     Column Row Layer    Maximum-Head-Change  Column Row Layer    Maximum-Flux-Residual          L2-NORM 
          0                 1           2             2    1     1       0.1380972000E-02       2    1    1         0.7173173832E-01      0.9468752115E-01
          0                 2           2             2    1     1      -0.1343309953E-03       2    1    1        -0.7173178987E-02      0.9468774185E-02
          0                 3           1             2    1     1       0.9147442070E-05       2    1    1         0.5021226839E-03      0.6628427167E-03

    ------------------------------------------------
       NWT REQUIRED            3 OUTER ITERATIONS 
       AND A TOTAL OF          5 INNER ITERATIONS.
    ------------------------------------------------

 NO OUTPUT CONTROL FOR STRESS PERIOD   26   TIME STEP   30



 STREAM LISTING     PERIOD     26   STEP       30

 LAYER ROW COL. STREAM  RCH.  FLOW INTO     FLOW TO   FLOW OUT OF   OVRLND.     DIRECT     STREAM       STREAM     STREAM     STREAM   STREAMBED  STREAMBED
                SEG.NO.  NO.  STRM. RCH.    AQUIFER    STRM. RCH.    RUNOFF     PRECIP       ET          HEAD       DEPTH      WIDTH   CONDCTNC.   GRADIENT

   1    1    1     1     1    1.6500E+01  1.9759E-01   1.6303E+01  0.000E+00  0.000E+00  0.000E+00  1.09409E+03  1.039E+00  1.087E+01  4.893E-02  1.346E+00
   1    2    2     1     2    1.6303E+01  3.0466E-01   1.5998E+01  0.000E+00  0.000E+00  0.000E+00  1.08909E+03  1.034E+00  1.079E+01  7.552E-02  1.345E+00
   1    3    3     1     3    1.5998E+01  2.5853E-01   1.5739E+01  0.000E+00  0.000E+00  0.000E+00  1.08345E+03  1.029E+00  1.070E+01  6.417E-02  1.343E+00
   1    3    4     1     4    1.5739E+01  2.3700E-01   1.5502E+01  0.000E+00  0.000E+00  0.000E+00  1.07843E+03  1.024E+00  1.061E+01  5.890E-02  1.341E+00
   1    4    5     2     1    1.3502E+01  2.9865E-01   1.3204E+01  0.000E+00  0.000E+00  0.000E+00  1.07276E+03  8.289E-01  1.200E+01  7.800E-02  1.276E+00
   1    5    6     2     2    1.3204E+01  2.2914E-01   1.2975E+01  0.000E+00  0.000E+00  0.000E+00  1.06733E+03  8.190E-01  1.200E+01  6.000E-02  1.273E+00
   1    6    6     2     3    1.2975E+01  2.2862E-01   1.2746E+01  0.000E+00  0.000E+00  0.000E+00  1.06260E+03  8.104E-01  1.200E+01  6.000E-02  1.270E+00
   1    7    6     2     4    1.2746E+01  2.2810E-01   1.2518E+01  0.000E+00  0.000E+00  0.000E+00  1.05788E+03  8.017E-01  1.200E+01  6.000E-02  1.267E+00
   1    8    6     2     5    1.2518E+01  2.2758E-01   1.2290E+01  0.000E+00  0.000E+00  0.000E+00  1.05315E+03  7.930E-01  1.200E+01  6.000E-02  1.264E+00
   1    3    5     3     1    2.0000E+00  2.8252E-01   1.7175E+00  0.000E+00  0.000E+00  0.000E+00  1.07555E+03  1.909E+00  9.636E+00  7.227E-02  1.955E+00
   1    3    6     3     2    1.7175E+00  2.4905E-01   1.4684E+00  0.000E+00  0.000E+00  0.000E+00  1.07264E+03  1.727E+00  8.909E+00  6.682E-02  1.864E+00
   1    3    7     3     3    1.4684E+00  1.9718E-01   1.2712E+00  0.000E+00  0.000E+00  0.000E+00  1.06987E+03  1.555E+00  8.218E+00  5.547E-02  1.777E+00
   1    4    8     3     4    1.2712E+00  2.2567E-01   1.0456E+00  0.000E+00  0.000E+00  0.000E+00  1.06682E+03  1.364E+00  7.455E+00  6.709E-02  1.682E+00
   1    5    8     3     5    1.0456E+00  1.5790E-01   8.8768E-01  0.000E+00  0.000E+00  0.000E+00  1.06362E+03  1.164E+00  6.655E+00  4.991E-02  1.582E+00
   1    6    8     3     6    8.8768E-01  5.5980E-02   8.3170E-01  0.000E+00  0.000E+00  0.000E+00  1.06158E+03  1.036E+00  6.145E+00  1.844E-02  1.518E+00
   1    5   10     4     1    1.0000E+01  9.0919E-02   9.9091E+00  0.000E+00  0.000E+00  0.000E+00  1.07836E+03  6.368E-01  1.000E+01  2.500E-02  1.212E+00
   1    5    9     4     2    9.9091E+00  1.8158E-01   9.7275E+00  0.000E+00  0.000E+00  0.000E+00  1.07154E+03  6.315E-01  1.000E+01  5.000E-02  1.211E+00
   1    6    8     4     3    9.7275E+00  1.2689E-01   9.6006E+00  0.000E+00  0.000E+00  0.000E+00  1.06381E+03  6.256E-01  1.000E+01  3.500E-02  1.209E+00
   1    6    8     5     1    1.0432E+01  2.2686E-01   1.0205E+01  0.000E+00  0.000E+00  0.000E+00  1.05868E+03  6.790E-01  1.542E+01  6.166E-02  1.226E+00
   1    7    7     5     2    1.0205E+01  2.7894E-01   9.9265E+00  0.000E+00  0.000E+00  0.000E+00  1.05417E+03  6.732E-01  1.519E+01  7.594E-02  1.224E+00
   1    8    7     5     3    9.9265E+00  1.9221E-01   9.7343E+00  0.000E+00  0.000E+00  0.000E+00  1.04992E+03  6.676E-01  1.497E+01  5.241E-02  1.223E+00
   1    8    6     5     4    9.7343E+00  1.3577E-01   9.5985E+00  0.000E+00  0.000E+00  0.000E+00  1.04691E+03  6.637E-01  1.482E+01  3.706E-02  1.221E+00
   1    9    6     6     1    9.5985E+00  2.2097E-01   9.3776E+00  0.000E+00  0.000E+00  0.000E+00  1.04341E+03  6.828E-01  1.200E+01  6.000E-02  1.228E+00
   1   10    7     6     2    9.3776E+00  2.2039E-01   9.1572E+00  0.000E+00  0.000E+00  0.000E+00  1.03885E+03  6.732E-01  1.200E+01  6.000E-02  1.224E+00
   1   11    7     6     3    9.1572E+00  2.1981E-01   8.9374E+00  0.000E+00  0.000E+00  0.000E+00  1.03430E+03  6.636E-01  1.200E+01  6.000E-02  1.221E+00
   1   12    7     6     4    8.9374E+00  2.1923E-01   8.7181E+00  0.000E+00  0.000E+00  0.000E+00  1.02974E+03  6.539E-01  1.200E+01  6.000E-02  1.218E+00
   1   13    7     6     5    8.7181E+00 -1.1065E-01   8.8288E+00  0.000E+00  0.000E+00  0.000E+00  1.02656E+03  6.514E-01  1.200E+01  2.400E-01 -1.537E-01
   1   14    9     7     1    1.5000E+02  1.3438E+00   1.4866E+02  0.000E+00  0.000E+00  0.000E+00  1.03987E+03  2.288E+00  5.529E+01  5.593E-01  8.009E-01
   1   13    8     7     2    1.4866E+02  1.8489E+00   1.4681E+02  0.000E+00  0.000E+00  0.000E+00  1.03478E+03  2.279E+00  5.526E+01  6.148E-01  1.003E+00
   1   13    7     7     3    1.4681E+02  1.4900E+00   1.4532E+02  0.000E+00  0.000E+00  0.000E+00  1.02969E+03  2.270E+00  5.522E+01  5.584E-01  8.894E-01
   1   13    6     8     1    1.5415E+02  8.4194E-01   1.5330E+02  0.000E+00  0.000E+00  0.000E+00  1.02472E+03  2.843E+00  4.122E+01  4.201E-01  6.681E-01
   1   13    5     8     2    1.5330E+02  1.1180E-01   1.5319E+02  0.000E+00  0.000E+00  0.000E+00  1.01846E+03  2.840E+00  4.117E+01  4.196E-01  8.882E-02
   1   13    4     8     3    1.5319E+02 -2.6411E+00   1.5583E+02  0.000E+00  0.000E+00  0.000E+00  1.01222E+03  2.848E+00  4.130E+01  4.209E+00 -2.092E-01
   1   13    3     8     4    1.5583E+02 -3.7289E+00   1.5956E+02  0.000E+00  0.000E+00  0.000E+00  1.00600E+03  2.870E+00  4.162E+01  4.241E+00 -2.931E-01
   1   13    2     8     5    1.5956E+02 -2.5939E+00   1.6216E+02  0.000E+00  0.000E+00  0.000E+00  9.99767E+02  2.892E+00  4.193E+01  4.273E+00 -2.024E-01
   1   13    1     8     6    1.6216E+02 -1.9795E+00   1.6414E+02  0.000E+00  0.000E+00  0.000E+00  9.94782E+02  2.907E+00  4.215E+01  2.577E+00 -2.560E-01
   1    8    6     9     1    1.2290E+01  0.0000E+00   1.2290E+01  0.000E+00  0.000E+00  0.000E+00  1.08131E+03  2.565E+00  4.000E+00  0.000E+00  1.855E+00
   1    8    5     9     2    1.2290E+01  0.0000E+00   1.2290E+01  0.000E+00  0.000E+00  0.000E+00  1.08081E+03  2.565E+00  4.000E+00  0.000E+00  1.855E+00





UNSATURATED ZONE PACKAGE VOLUMETRIC BUDGET FOR  TIME STEP    30 STRESS PERIOD   26
  ------------------------------------------------------------------------------



     CUMULATIVE VOLUMES      L**3       RATES FOR THIS TIME STEP      L**3/T
     ------------------                 ------------------------

           IN:                                      IN:
           ---                                      ---
        INFILTRATION =    55796345.8185          INFILTRATION =           0.8475

          OUT:                                     OUT:
          ----                                     ----
              UZF ET =    54282153.3148                UZF ET =           0.7500
        UZF RECHARGE =       73224.0000          UZF RECHARGE =       0.0000E+00

            IN - OUT =     1440968.5037              IN - OUT =       9.7500E-02

          STORAGE:                                 STORAGE:
          --------                                 --------
      STORAGE CHANGE =     1440968.7386        STORAGE CHANGE =       9.7500E-02

 PERCENT DISCREPANCY IS DIFFERENCE BETWEEN IN-OUT MINUS CHANGE IN STORAGE
 DIVIDED BY THE AVERAGE OF IN AND OUT TIMES 100

 PERCENT DISCREPANCY =          -0.00     PERCENT DISCREPANCY =           0.00






1
  VOLUMETRIC BUDGET FOR ENTIRE MODEL AT END OF TIME STEP   30, STRESS PERIOD  26
  ------------------------------------------------------------------------------

     CUMULATIVE VOLUMES      L**3       RATES FOR THIS TIME STEP      L**3/T
     ------------------                 ------------------------

           IN:                                      IN:
           ---                                      ---
             STORAGE     =    24641954.0000               STORAGE     =           0.1673
       CONSTANT HEAD     =           0.0000         CONSTANT HEAD     =           0.0000
     HEAD DEP BOUNDS     =    18832318.0000       HEAD DEP BOUNDS     =           0.2863
      STREAM LEAKAGE     =   767458560.0000        STREAM LEAKAGE     =          11.1282
        UZF RECHARGE     =       73223.9531          UZF RECHARGE     =           0.0000
               GW ET     =           0.0000                 GW ET     =           0.0000
     SURFACE LEAKAGE     =           0.0000       SURFACE LEAKAGE     =           0.0000

                TOTAL IN =   811006080.0000                  TOTAL IN =          11.5819

          OUT:                                     OUT:
          ----                                     ----
             STORAGE     =    62579236.0000               STORAGE     =           0.2410
       CONSTANT HEAD     =           0.0000         CONSTANT HEAD     =           0.0000
     HEAD DEP BOUNDS     =    18890236.0000       HEAD DEP BOUNDS     =           0.2869
      STREAM LEAKAGE     =   729546944.0000        STREAM LEAKAGE     =          11.0540
        UZF RECHARGE     =           0.0000          UZF RECHARGE     =           0.0000
               GW ET     =           0.0000                 GW ET     =           0.0000
     SURFACE LEAKAGE     =           0.0000       SURFACE LEAKAGE     =           0.0000

               TOTAL OUT =   811016448.0000                 TOTAL OUT =          11.5819

                IN - OUT =      -10368.0000                  IN - OUT =      -1.7166E-05

     PERCENT DISCREPANCY =          -0.00         PERCENT DISCREPANCY =          -0.00






         TIME SUMMARY AT END OF TIME STEP   30 IN STRESS PERIOD   26
                    SECONDS     MINUTES      HOURS       DAYS        YEARS
                    -----------------------------------------------------------
   TIME STEP LENGTH  87667.      1461.1      24.352      1.0147     2.77799E-03
 STRESS PERIOD TIME 2.63000E+06  43833.      730.56      30.440     8.33397E-02
         TOTAL TIME 6.58368E+07 1.09728E+06  18288.      762.00      2.0862    
1
1
                            STRESS PERIOD NO.   27, LENGTH =   2630000.    
                            -----------------------------------------------

                              NUMBER OF TIME STEPS =    30

                               MULTIPLIER FOR DELT =     1.000

                            INITIAL TIME STEP SIZE =   87666.66    

 REUSING NON-PARAMETER GHB CELLS FROM LAST STRESS PERIOD

      2 GHB CELLS

 REUSING STREAM SEGMENT DATA FROM LAST STRESS PERIOD



            AREAL INFILTRATION RATE
 READING ON UNIT   19 WITH FORMAT: (FREE)              

            1           2           3           4           5           6           7           8           9          10
 ........................................................................................................................
   1   1.0000E-10  2.0000E-10   0.000       0.000       0.000       0.000       0.000       0.000       0.000       0.000    
   2   2.0000E-10  1.0000E-10  2.0000E-10   0.000       0.000      8.0000E-10  8.0000E-10  5.0000E-10   0.000       0.000    
   3    0.000      5.0000E-10  1.0000E-10  1.0000E-10  8.0000E-10  8.0000E-10  5.0000E-10  5.0000E-10   0.000       0.000    
   4   8.0000E-10  5.0000E-10  1.0000E-10  1.0000E-10  1.0000E-10  1.0000E-10  1.0000E-10  1.0000E-10  2.0000E-10   0.000    
   5   8.0000E-10  5.0000E-10  1.0000E-10  1.0000E-10  1.0000E-10  1.0000E-10  1.0000E-10  1.0000E-10  1.0000E-10  1.0000E-10
   6   8.0000E-10  5.0000E-10  5.0000E-10  2.0000E-10  2.0000E-10  1.0000E-10  1.0000E-10  1.0000E-10  1.0000E-10  5.0000E-10
   7   8.0000E-10  5.0000E-10  5.0000E-10  2.0000E-10  2.0000E-10  1.0000E-10  1.0000E-10  2.0000E-10  2.0000E-10   0.000    
   8    0.000      5.0000E-10  5.0000E-10  2.0000E-10  2.0000E-10  1.0000E-10  1.0000E-10  2.0000E-10  5.0000E-10   0.000    
   9    0.000      5.0000E-10  5.0000E-10  2.0000E-10  2.0000E-10  1.0000E-10  1.0000E-10  2.0000E-10  5.0000E-10   0.000    
  10    0.000      5.0000E-10  5.0000E-10  2.0000E-10  2.0000E-10  1.0000E-10  1.0000E-10  2.0000E-10  5.0000E-10  8.0000E-10
  11    0.000      1.0000E-10  1.0000E-10  1.0000E-10  1.0000E-10  1.0000E-10  1.0000E-10  2.0000E-10  5.0000E-10   0.000    
  12   1.0000E-10  1.0000E-10  1.0000E-10  1.0000E-10  1.0000E-10  1.0000E-10  1.0000E-10  1.0000E-10  2.0000E-10   0.000    
  13   1.0000E-10  1.0000E-10  2.0000E-10  2.0000E-10  2.0000E-10  2.0000E-10  2.0000E-10  1.0000E-10  1.0000E-10   0.000    
  14    0.000      2.0000E-10  5.0000E-10  5.0000E-10  5.0000E-10  5.0000E-10  5.0000E-10  2.0000E-10  1.0000E-10   0.000    
  15    0.000       0.000      8.0000E-10  8.0000E-10  8.0000E-10  8.0000E-10   0.000       0.000       0.000       0.000    

                  ET RATE =  5.000000E-10

 USING ET EXTINCTION DEPTH FROM PREVIOUS STRESS PERIOD. CURRENT PERIOD IS:      27

 USING EXTINCTION WATER CONTENT FROM PREVIOUS STRESS PERIOD. CURRENT PERIOD IS:      27

 USING AIR ENTRY PRESSURE FROM PREVIOUS STRESS PERIOD. CURRENT PERIOD IS:      27

 USING ROOT PRESSURE HEAD FROM PREVIOUS STRESS PERIOD. CURRENT PERIOD IS:      27

 USING ROOT ACTIVITY FROM PREVIOUS STRESS PERIOD. CURRENT PERIOD IS:      27
 
 SOLVING FOR HEAD 
                                                   Max.-Head-Change                         Max.-Flux-Residual
  Residual-Control   Outer-Iter.   Inner-Iter.     Column Row Layer    Maximum-Head-Change  Column Row Layer    Maximum-Flux-Residual          L2-NORM 
          0                 1           2             2    1     1       0.1378724682E-02       2    1    1         0.7161474791E-01      0.9457715660E-01
          0                 2           2             2    1     1      -0.1341123923E-03       2    1    1        -0.7161479914E-02      0.9457709578E-02
          0                 3           1             2    1     1       0.9132556504E-05       2    1    1         0.5013037627E-03      0.6620384477E-03

    ------------------------------------------------
       NWT REQUIRED            3 OUTER ITERATIONS 
       AND A TOTAL OF          5 INNER ITERATIONS.
    ------------------------------------------------

 NO OUTPUT CONTROL FOR STRESS PERIOD   27   TIME STEP    1
 
 SOLVING FOR HEAD 
                                                   Max.-Head-Change                         Max.-Flux-Residual
  Residual-Control   Outer-Iter.   Inner-Iter.     Column Row Layer    Maximum-Head-Change  Column Row Layer    Maximum-Flux-Residual          L2-NORM 
          0                 1           2             2    1     1       0.1377265582E-02       2    1    1         0.7149710301E-01      0.1063501498E+00
          0                 2           2             2    1     1      -0.1339704417E-03       2    1    1        -0.7149714121E-02      0.1063500596E-01
          0                 3           1             2    1     1       0.9122890768E-05       2    1    1         0.5004801697E-03      0.7444520285E-03

    ------------------------------------------------
       NWT REQUIRED            3 OUTER ITERATIONS 
       AND A TOTAL OF          5 INNER ITERATIONS.
    ------------------------------------------------

 NO OUTPUT CONTROL FOR STRESS PERIOD   27   TIME STEP    2
 
 SOLVING FOR HEAD 
                                                   Max.-Head-Change                         Max.-Flux-Residual
  Residual-Control   Outer-Iter.   Inner-Iter.     Column Row Layer    Maximum-Head-Change  Column Row Layer    Maximum-Flux-Residual          L2-NORM 
          0                 1           2             2    2     1       0.2356793533E-02       2    2    1         0.1230694606E+00      0.2399468126E+00
          0                 2           2             2    2     1      -0.2292520348E-03       2    2    1        -0.1230696541E-01      0.2399469353E-01
          0                 3           1             2    2     1       0.1561121065E-04       2    2    1         0.8614877693E-03      0.1679632171E-02

    ------------------------------------------------
       NWT REQUIRED            3 OUTER ITERATIONS 
       AND A TOTAL OF          5 INNER ITERATIONS.
    ------------------------------------------------

 NO OUTPUT CONTROL FOR STRESS PERIOD   27   TIME STEP    3
 
 SOLVING FOR HEAD 
                                                   Max.-Head-Change                         Max.-Flux-Residual
  Residual-Control   Outer-Iter.   Inner-Iter.     Column Row Layer    Maximum-Head-Change  Column Row Layer    Maximum-Flux-Residual          L2-NORM 
          0                 1           2             2    2     1       0.2341804905E-02       2    2    1         0.1222802596E+00      0.2379584574E+00
          0                 2           2             2    2     1      -0.2277940445E-03       2    2    1        -0.1222804494E-01      0.2379585798E-01
          0                 3           1             2    2     1       0.1551192716E-04       2    2    1         0.8559633382E-03      0.1665710934E-02

    ------------------------------------------------
       NWT REQUIRED            3 OUTER ITERATIONS 
       AND A TOTAL OF          5 INNER ITERATIONS.
    ------------------------------------------------

 NO OUTPUT CONTROL FOR STRESS PERIOD   27   TIME STEP    4
 
 SOLVING FOR HEAD 
                                                   Max.-Head-Change                         Max.-Flux-Residual
  Residual-Control   Outer-Iter.   Inner-Iter.     Column Row Layer    Maximum-Head-Change  Column Row Layer    Maximum-Flux-Residual          L2-NORM 
          0                 1           2             2    2     1       0.2326956918E-02       2    2    1         0.1214985351E+00      0.2360853411E+00
          0                 2           2             2    2     1      -0.2263497347E-03       2    2    1        -0.1214987212E-01      0.2360854488E-01
          0                 3           1             2    2     1       0.1541357521E-04       2    2    1         0.8504912409E-03      0.1652598808E-02

    ------------------------------------------------
       NWT REQUIRED            3 OUTER ITERATIONS 
       AND A TOTAL OF          5 INNER ITERATIONS.
    ------------------------------------------------

 NO OUTPUT CONTROL FOR STRESS PERIOD   27   TIME STEP    5
 
 SOLVING FOR HEAD 
                                                   Max.-Head-Change                         Max.-Flux-Residual
  Residual-Control   Outer-Iter.   Inner-Iter.     Column Row Layer    Maximum-Head-Change  Column Row Layer    Maximum-Flux-Residual          L2-NORM 
          0                 1           2             2    2     1       0.2312422002E-02       2    2    1         0.1207332622E+00      0.2343149251E+00
          0                 2           2             2    2     1      -0.2249358784E-03       2    2    1        -0.1207334448E-01      0.2343150387E-01
          0                 3           1             2    2     1       0.1531729652E-04       2    2    1         0.8451343042E-03      0.1640204924E-02

    ------------------------------------------------
       NWT REQUIRED            3 OUTER ITERATIONS 
       AND A TOTAL OF          5 INNER ITERATIONS.
    ------------------------------------------------

 NO OUTPUT CONTROL FOR STRESS PERIOD   27   TIME STEP    6
 
 SOLVING FOR HEAD 
                                                   Max.-Head-Change                         Max.-Flux-Residual
  Residual-Control   Outer-Iter.   Inner-Iter.     Column Row Layer    Maximum-Head-Change  Column Row Layer    Maximum-Flux-Residual          L2-NORM 
          0                 1           2             2    2     1       0.2298020367E-02       2    2    1         0.1199750620E+00      0.2326427696E+00
          0                 2           2             2    2     1      -0.2235349871E-03       2    2    1        -0.1199752412E-01      0.2326428754E-01
          0                 3           1             2    2     1       0.1522190134E-04       2    2    1         0.8398268923E-03      0.1628502453E-02

    ------------------------------------------------
       NWT REQUIRED            3 OUTER ITERATIONS 
       AND A TOTAL OF          5 INNER ITERATIONS.
    ------------------------------------------------

 NO OUTPUT CONTROL FOR STRESS PERIOD   27   TIME STEP    7
 
 SOLVING FOR HEAD 
                                                   Max.-Head-Change                         Max.-Flux-Residual
  Residual-Control   Outer-Iter.   Inner-Iter.     Column Row Layer    Maximum-Head-Change  Column Row Layer    Maximum-Flux-Residual          L2-NORM 
          0                 1           2             2    2     1       0.2283836645E-02       2    2    1         0.1192283521E+00      0.2310494670E+00
          0                 2           2             2    2     1      -0.2221552926E-03       2    2    1        -0.1192285281E-01      0.2310495843E-01
          0                 3           1             2    2     1       0.1512794939E-04       2    2    1         0.8345998834E-03      0.1617347159E-02

    ------------------------------------------------
       NWT REQUIRED            3 OUTER ITERATIONS 
       AND A TOTAL OF          5 INNER ITERATIONS.
    ------------------------------------------------

 NO OUTPUT CONTROL FOR STRESS PERIOD   27   TIME STEP    8
 
 SOLVING FOR HEAD 
                                                   Max.-Head-Change                         Max.-Flux-Residual
  Residual-Control   Outer-Iter.   Inner-Iter.     Column Row Layer    Maximum-Head-Change  Column Row Layer    Maximum-Flux-Residual          L2-NORM 
          0                 1           2             2    2     1       0.2269867088E-02       2    2    1         0.1184929408E+00      0.2295398800E+00
          0                 2           2             2    2     1      -0.2207964307E-03       2    2    1        -0.1184931134E-01      0.2295399854E-01
          0                 3           1             2    2     1       0.1503541629E-04       2    2    1         0.8294520000E-03      0.1606780382E-02

    ------------------------------------------------
       NWT REQUIRED            3 OUTER ITERATIONS 
       AND A TOTAL OF          5 INNER ITERATIONS.
    ------------------------------------------------

 NO OUTPUT CONTROL FOR STRESS PERIOD   27   TIME STEP    9
 
 SOLVING FOR HEAD 
                                                   Max.-Head-Change                         Max.-Flux-Residual
  Residual-Control   Outer-Iter.   Inner-Iter.     Column Row Layer    Maximum-Head-Change  Column Row Layer    Maximum-Flux-Residual          L2-NORM 
          0                 1           2             2    2     1       0.2256108472E-02       2    2    1         0.1177686338E+00      0.2281060395E+00
          0                 2           2             2    2     1      -0.2194580877E-03       2    2    1        -0.1177688032E-01      0.2281061517E-01
          0                 3           1             2    2     1       0.1494427980E-04       2    2    1         0.8243818298E-03      0.1596745303E-02

    ------------------------------------------------
       NWT REQUIRED            3 OUTER ITERATIONS 
       AND A TOTAL OF          5 INNER ITERATIONS.
    ------------------------------------------------

 NO OUTPUT CONTROL FOR STRESS PERIOD   27   TIME STEP   10
 
 SOLVING FOR HEAD 
                                                   Max.-Head-Change                         Max.-Flux-Residual
  Residual-Control   Outer-Iter.   Inner-Iter.     Column Row Layer    Maximum-Head-Change  Column Row Layer    Maximum-Flux-Residual          L2-NORM 
          0                 1           2             2    2     1       0.2242557273E-02       2    2    1         0.1170552638E+00      0.2267438581E+00
          0                 2           2             2    2     1      -0.2181399203E-03       2    2    1        -0.1170554301E-01      0.2267439449E-01
          0                 3           1             2    2     1       0.1485451673E-04       2    2    1         0.8193881821E-03      0.1587207847E-02

    ------------------------------------------------
       NWT REQUIRED            3 OUTER ITERATIONS 
       AND A TOTAL OF          5 INNER ITERATIONS.
    ------------------------------------------------

 NO OUTPUT CONTROL FOR STRESS PERIOD   27   TIME STEP   11
 
 SOLVING FOR HEAD 
                                                   Max.-Head-Change                         Max.-Flux-Residual
  Residual-Control   Outer-Iter.   Inner-Iter.     Column Row Layer    Maximum-Head-Change  Column Row Layer    Maximum-Flux-Residual          L2-NORM 
          0                 1           2             2    2     1       0.2229209946E-02       2    2    1         0.1163526482E+00      0.2254387815E+00
          0                 2           2             2    2     1      -0.2168415851E-03       2    2    1        -0.1163528116E-01      0.2254388898E-01
          0                 3           1             2    2     1       0.1476610554E-04       2    2    1         0.8144698675E-03      0.1578075895E-02

    ------------------------------------------------
       NWT REQUIRED            3 OUTER ITERATIONS 
       AND A TOTAL OF          5 INNER ITERATIONS.
    ------------------------------------------------

 NO OUTPUT CONTROL FOR STRESS PERIOD   27   TIME STEP   12
 
 SOLVING FOR HEAD 
                                                   Max.-Head-Change                         Max.-Flux-Residual
  Residual-Control   Outer-Iter.   Inner-Iter.     Column Row Layer    Maximum-Head-Change  Column Row Layer    Maximum-Flux-Residual          L2-NORM 
          0                 1           2             2    2     1       0.2215975461E-02       2    2    1         0.1156560228E+00      0.2241937872E+00
          0                 2           2             2    2     1      -0.2155542264E-03       2    2    1        -0.1156561831E-01      0.2241939767E-01
          0                 3           1             2    2     1       0.1467844128E-04       2    2    1         0.8095934880E-03      0.1569391528E-02

    ------------------------------------------------
       NWT REQUIRED            3 OUTER ITERATIONS 
       AND A TOTAL OF          5 INNER ITERATIONS.
    ------------------------------------------------

 NO OUTPUT CONTROL FOR STRESS PERIOD   27   TIME STEP   13
 
 SOLVING FOR HEAD 
                                                   Max.-Head-Change                         Max.-Flux-Residual
  Residual-Control   Outer-Iter.   Inner-Iter.     Column Row Layer    Maximum-Head-Change  Column Row Layer    Maximum-Flux-Residual          L2-NORM 
          0                 1           2             2    2     1       0.2203026358E-02       2    2    1         0.1149744088E+00      0.2230098608E+00
          0                 2           2             2    2     1      -0.2142946273E-03       2    2    1        -0.1149745662E-01      0.2230099236E-01
          0                 3           1             2    2     1       0.1459266734E-04       2    2    1         0.8048221677E-03      0.1561069737E-02

    ------------------------------------------------
       NWT REQUIRED            3 OUTER ITERATIONS 
       AND A TOTAL OF          5 INNER ITERATIONS.
    ------------------------------------------------

 NO OUTPUT CONTROL FOR STRESS PERIOD   27   TIME STEP   14
 
 SOLVING FOR HEAD 
                                                   Max.-Head-Change                         Max.-Flux-Residual
  Residual-Control   Outer-Iter.   Inner-Iter.     Column Row Layer    Maximum-Head-Change  Column Row Layer    Maximum-Flux-Residual          L2-NORM 
          0                 1           2             2    2     1       0.2190183377E-02       2    2    1         0.1142984307E+00      0.2218683733E+00
          0                 2           2             2    2     1      -0.2130453512E-03       2    2    1        -0.1142985854E-01      0.2218684447E-01
          0                 3           1             2    2     1       0.1450759632E-04       2    2    1         0.8000903069E-03      0.1553087304E-02

    ------------------------------------------------
       NWT REQUIRED            3 OUTER ITERATIONS 
       AND A TOTAL OF          5 INNER ITERATIONS.
    ------------------------------------------------

 NO OUTPUT CONTROL FOR STRESS PERIOD   27   TIME STEP   15
 
 SOLVING FOR HEAD 
                                                   Max.-Head-Change                         Max.-Flux-Residual
  Residual-Control   Outer-Iter.   Inner-Iter.     Column Row Layer    Maximum-Head-Change  Column Row Layer    Maximum-Flux-Residual          L2-NORM 
          0                 1           2             2    2     1       0.2177366068E-02       2    2    1         0.1136238608E+00      0.2207661702E+00
          0                 2           2             2    2     1      -0.2117985723E-03       2    2    1        -0.1136240126E-01      0.2207662483E-01
          0                 3           1             2    2     1       0.1442269522E-04       2    2    1         0.7953682955E-03      0.1545364761E-02

    ------------------------------------------------
       NWT REQUIRED            3 OUTER ITERATIONS 
       AND A TOTAL OF          5 INNER ITERATIONS.
    ------------------------------------------------

 NO OUTPUT CONTROL FOR STRESS PERIOD   27   TIME STEP   16
 
 SOLVING FOR HEAD 
                                                   Max.-Head-Change                         Max.-Flux-Residual
  Residual-Control   Outer-Iter.   Inner-Iter.     Column Row Layer    Maximum-Head-Change  Column Row Layer    Maximum-Flux-Residual          L2-NORM 
          0                 1           2             2    2     1       0.2164991978E-02       2    2    1         0.1129725518E+00      0.2197210820E+00
          0                 2           2             2    2     1      -0.2105949060E-03       2    2    1        -0.1129727005E-01      0.2197295385E-01
          0                 3           1             2    2     1       0.1434073054E-04       2    2    1         0.7908091111E-03      0.1554745222E-02

    ------------------------------------------------
       NWT REQUIRED            3 OUTER ITERATIONS 
       AND A TOTAL OF          5 INNER ITERATIONS.
    ------------------------------------------------

 NO OUTPUT CONTROL FOR STRESS PERIOD   27   TIME STEP   17
 
 SOLVING FOR HEAD 
                                                   Max.-Head-Change                         Max.-Flux-Residual
  Residual-Control   Outer-Iter.   Inner-Iter.     Column Row Layer    Maximum-Head-Change  Column Row Layer    Maximum-Flux-Residual          L2-NORM 
          0                 1           2             2    2     1       0.2152714763E-02       2    2    1         0.1123263874E+00      0.2187218818E+00
          0                 2           2             2    2     1      -0.2094006641E-03       2    2    1        -0.1123265336E-01      0.2187219499E-01
          0                 3           1             2    2     1       0.1425940700E-04       2    2    1         0.7862859410E-03      0.1531055101E-02

    ------------------------------------------------
       NWT REQUIRED            3 OUTER ITERATIONS 
       AND A TOTAL OF          5 INNER ITERATIONS.
    ------------------------------------------------

 NO OUTPUT CONTROL FOR STRESS PERIOD   27   TIME STEP   18
 
 SOLVING FOR HEAD 
                                                   Max.-Head-Change                         Max.-Flux-Residual
  Residual-Control   Outer-Iter.   Inner-Iter.     Column Row Layer    Maximum-Head-Change  Column Row Layer    Maximum-Flux-Residual          L2-NORM 
          0                 1           2             2    2     1       0.2140619985E-02       2    2    1         0.1116898265E+00      0.2177564141E+00
          0                 2           2             2    2     1      -0.2082241680E-03       2    2    1        -0.1116899701E-01      0.2177564867E-01
          0                 3           1             2    2     1       0.1417929167E-04       2    2    1         0.7818299847E-03      0.1524295317E-02

    ------------------------------------------------
       NWT REQUIRED            3 OUTER ITERATIONS 
       AND A TOTAL OF          5 INNER ITERATIONS.
    ------------------------------------------------

 NO OUTPUT CONTROL FOR STRESS PERIOD   27   TIME STEP   19
 
 SOLVING FOR HEAD 
                                                   Max.-Head-Change                         Max.-Flux-Residual
  Residual-Control   Outer-Iter.   Inner-Iter.     Column Row Layer    Maximum-Head-Change  Column Row Layer    Maximum-Flux-Residual          L2-NORM 
          0                 1           2             2    2     1       0.2128703848E-02       2    2    1         0.1110627247E+00      0.2168304367E+00
          0                 2           2             2    2     1      -0.2070650488E-03       2    2    1        -0.1110628659E-01      0.2168305092E-01
          0                 3           1             2    2     1       0.1410035972E-04       2    2    1         0.7774402401E-03      0.1517815257E-02

    ------------------------------------------------
       NWT REQUIRED            3 OUTER ITERATIONS 
       AND A TOTAL OF          5 INNER ITERATIONS.
    ------------------------------------------------

 NO OUTPUT CONTROL FOR STRESS PERIOD   27   TIME STEP   20
 
 SOLVING FOR HEAD 
                                                   Max.-Head-Change                         Max.-Flux-Residual
  Residual-Control   Outer-Iter.   Inner-Iter.     Column Row Layer    Maximum-Head-Change  Column Row Layer    Maximum-Flux-Residual          L2-NORM 
          0                 1           2             1    1     1       0.2121405869E-02       2    2    1         0.1104448853E+00      0.2159372746E+00
          0                 2           2             1    1     1      -0.2063550276E-03       2    2    1        -0.1104450239E-01      0.2159373399E-01
          0                 3           1             1    1     1       0.1405201139E-04       2    2    1         0.7731153684E-03      0.1511562361E-02

    ------------------------------------------------
       NWT REQUIRED            3 OUTER ITERATIONS 
       AND A TOTAL OF          5 INNER ITERATIONS.
    ------------------------------------------------

 NO OUTPUT CONTROL FOR STRESS PERIOD   27   TIME STEP   21
 
 SOLVING FOR HEAD 
                                                   Max.-Head-Change                         Max.-Flux-Residual
  Residual-Control   Outer-Iter.   Inner-Iter.     Column Row Layer    Maximum-Head-Change  Column Row Layer    Maximum-Flux-Residual          L2-NORM 
          0                 1           2             1    1     1       0.2120047519E-02       1    1    1         0.1100123432E+00      0.2150774299E+00
          0                 2           2             1    1     1      -0.2062228966E-03       1    1    1        -0.1100123997E-01      0.2150775173E-01
          0                 3           1             1    1     1       0.1404301378E-04       1    1    1         0.7700870755E-03      0.1505544792E-02

    ------------------------------------------------
       NWT REQUIRED            3 OUTER ITERATIONS 
       AND A TOTAL OF          5 INNER ITERATIONS.
    ------------------------------------------------

 NO OUTPUT CONTROL FOR STRESS PERIOD   27   TIME STEP   22
 
 SOLVING FOR HEAD 
                                                   Max.-Head-Change                         Max.-Flux-Residual
  Residual-Control   Outer-Iter.   Inner-Iter.     Column Row Layer    Maximum-Head-Change  Column Row Layer    Maximum-Flux-Residual          L2-NORM 
          0                 1           2             1    1     1       0.2118694100E-02       1    1    1         0.1099419149E+00      0.2142521771E+00
          0                 2           2             1    1     1      -0.2060912454E-03       1    1    1        -0.1099419712E-01      0.2142522344E-01
          0                 3           1             1    1     1       0.1403404884E-04       1    1    1         0.7695940677E-03      0.1499767143E-02

    ------------------------------------------------
       NWT REQUIRED            3 OUTER ITERATIONS 
       AND A TOTAL OF          5 INNER ITERATIONS.
    ------------------------------------------------

 NO OUTPUT CONTROL FOR STRESS PERIOD   27   TIME STEP   23
 
 SOLVING FOR HEAD 
                                                   Max.-Head-Change                         Max.-Flux-Residual
  Residual-Control   Outer-Iter.   Inner-Iter.     Column Row Layer    Maximum-Head-Change  Column Row Layer    Maximum-Flux-Residual          L2-NORM 
          0                 1           2             1    1     1       0.2117345619E-02       1    1    1         0.1098717422E+00      0.2134510158E+00
          0                 2           2             1    1     1      -0.2059600750E-03       1    1    1        -0.1098717983E-01      0.2134511105E-01
          0                 3           1             1    1     1       0.1402511703E-04       1    1    1         0.7691028727E-03      0.1494160973E-02

    ------------------------------------------------
       NWT REQUIRED            3 OUTER ITERATIONS 
       AND A TOTAL OF          5 INNER ITERATIONS.
    ------------------------------------------------

 NO OUTPUT CONTROL FOR STRESS PERIOD   27   TIME STEP   24
 
 SOLVING FOR HEAD 
                                                   Max.-Head-Change                         Max.-Flux-Residual
  Residual-Control   Outer-Iter.   Inner-Iter.     Column Row Layer    Maximum-Head-Change  Column Row Layer    Maximum-Flux-Residual          L2-NORM 
          0                 1           2             1    1     1       0.2115979198E-02       1    1    1         0.1098006399E+00      0.2126814376E+00
          0                 2           2             1    1     1      -0.2058271590E-03       1    1    1        -0.1098006957E-01      0.2126814840E-01
          0                 3           1             1    1     1       0.1401606569E-04       1    1    1         0.7686051503E-03      0.1488769385E-02

    ------------------------------------------------
       NWT REQUIRED            3 OUTER ITERATIONS 
       AND A TOTAL OF          5 INNER ITERATIONS.
    ------------------------------------------------

 NO OUTPUT CONTROL FOR STRESS PERIOD   27   TIME STEP   25
 
 SOLVING FOR HEAD 
                                                   Max.-Head-Change                         Max.-Flux-Residual
  Residual-Control   Outer-Iter.   Inner-Iter.     Column Row Layer    Maximum-Head-Change  Column Row Layer    Maximum-Flux-Residual          L2-NORM 
          0                 1           2             1    1     1       0.2114640489E-02       1    1    1         0.1097309788E+00      0.2119382323E+00
          0                 2           2             1    1     1      -0.2056969390E-03       1    1    1        -0.1097310344E-01      0.2119382666E-01
          0                 3           1             1    1     1       0.1400719849E-04       1    1    1         0.7681175309E-03      0.1483568772E-02

    ------------------------------------------------
       NWT REQUIRED            3 OUTER ITERATIONS 
       AND A TOTAL OF          5 INNER ITERATIONS.
    ------------------------------------------------

 NO OUTPUT CONTROL FOR STRESS PERIOD   27   TIME STEP   26
 
 SOLVING FOR HEAD 
                                                   Max.-Head-Change                         Max.-Flux-Residual
  Residual-Control   Outer-Iter.   Inner-Iter.     Column Row Layer    Maximum-Head-Change  Column Row Layer    Maximum-Flux-Residual          L2-NORM 
          0                 1           2             1    1     1       0.2113306598E-02       1    1    1         0.1096615688E+00      0.2112167030E+00
          0                 2           2             1    1     1      -0.2055671872E-03       1    1    1        -0.1096616241E-01      0.2112167723E-01
          0                 3           1             1    1     1       0.1399836277E-04       1    1    1         0.7676316625E-03      0.1478517494E-02

    ------------------------------------------------
       NWT REQUIRED            3 OUTER ITERATIONS 
       AND A TOTAL OF          5 INNER ITERATIONS.
    ------------------------------------------------

 NO OUTPUT CONTROL FOR STRESS PERIOD   27   TIME STEP   27
 
 SOLVING FOR HEAD 
                                                   Max.-Head-Change                         Max.-Flux-Residual
  Residual-Control   Outer-Iter.   Inner-Iter.     Column Row Layer    Maximum-Head-Change  Column Row Layer    Maximum-Flux-Residual          L2-NORM 
          0                 1           2             1    1     1       0.2111977467E-02       1    1    1         0.1095924087E+00      0.2105201067E+00
          0                 2           2             1    1     1      -0.2054378991E-03       1    1    1        -0.1095924640E-01      0.2105201382E-01
          0                 3           1             1    1     1       0.1398955876E-04       1    1    1         0.7671475369E-03      0.1473642502E-02

    ------------------------------------------------
       NWT REQUIRED            3 OUTER ITERATIONS 
       AND A TOTAL OF          5 INNER ITERATIONS.
    ------------------------------------------------

 NO OUTPUT CONTROL FOR STRESS PERIOD   27   TIME STEP   28
 
 SOLVING FOR HEAD 
                                                   Max.-Head-Change                         Max.-Flux-Residual
  Residual-Control   Outer-Iter.   Inner-Iter.     Column Row Layer    Maximum-Head-Change  Column Row Layer    Maximum-Flux-Residual          L2-NORM 
          0                 1           2             1    1     1       0.2110630271E-02       1    1    1         0.1095223093E+00      0.2098418229E+00
          0                 2           2             1    1     1      -0.2053068530E-03       1    1    1        -0.1095223643E-01      0.2098418919E-01
          0                 3           1             1    1     1       0.1398063452E-04       1    1    1         0.7666568225E-03      0.1468894527E-02

    ------------------------------------------------
       NWT REQUIRED            3 OUTER ITERATIONS 
       AND A TOTAL OF          5 INNER ITERATIONS.
    ------------------------------------------------

 NO OUTPUT CONTROL FOR STRESS PERIOD   27   TIME STEP   29
 
 SOLVING FOR HEAD 
                                                   Max.-Head-Change                         Max.-Flux-Residual
  Residual-Control   Outer-Iter.   Inner-Iter.     Column Row Layer    Maximum-Head-Change  Column Row Layer    Maximum-Flux-Residual          L2-NORM 
          0                 1           2             1    1     1       0.2109310668E-02       1    1    1         0.1094536453E+00      0.2091922895E+00
          0                 2           2             1    1     1      -0.2051784913E-03       1    1    1        -0.1094537001E-01      0.2091923713E-01
          0                 3           1             1    1     1       0.1397189394E-04       1    1    1         0.7661761841E-03      0.1464398366E-02

    ------------------------------------------------
       NWT REQUIRED            3 OUTER ITERATIONS 
       AND A TOTAL OF          5 INNER ITERATIONS.
    ------------------------------------------------

 NO OUTPUT CONTROL FOR STRESS PERIOD   27   TIME STEP   30



 STREAM LISTING     PERIOD     27   STEP       30

 LAYER ROW COL. STREAM  RCH.  FLOW INTO     FLOW TO   FLOW OUT OF   OVRLND.     DIRECT     STREAM       STREAM     STREAM     STREAM   STREAMBED  STREAMBED
                SEG.NO.  NO.  STRM. RCH.    AQUIFER    STRM. RCH.    RUNOFF     PRECIP       ET          HEAD       DEPTH      WIDTH   CONDCTNC.   GRADIENT

   1    1    1     1     1    3.1499E+01  2.7310E-01   3.1226E+01  0.000E+00  0.000E+00  0.000E+00  1.09431E+03  1.262E+00  1.424E+01  6.407E-02  1.421E+00
   1    2    2     1     2    3.1226E+01  4.2272E-01   3.0803E+01  0.000E+00  0.000E+00  0.000E+00  1.08932E+03  1.259E+00  1.418E+01  9.925E-02  1.420E+00
   1    3    3     1     3    3.0803E+01  3.6028E-01   3.0443E+01  0.000E+00  0.000E+00  0.000E+00  1.08367E+03  1.256E+00  1.411E+01  8.466E-02  1.419E+00
   1    3    4     1     4    3.0443E+01  3.3158E-01   3.0111E+01  0.000E+00  0.000E+00  0.000E+00  1.07866E+03  1.253E+00  1.405E+01  7.797E-02  1.418E+00
   1    4    5     2     1    2.8111E+01  3.3470E-01   2.7777E+01  0.000E+00  0.000E+00  0.000E+00  1.07322E+03  1.291E+00  1.200E+01  7.800E-02  1.430E+00
   1    5    6     2     2    2.7777E+01  2.5697E-01   2.7520E+01  0.000E+00  0.000E+00  0.000E+00  1.06779E+03  1.283E+00  1.200E+01  6.000E-02  1.428E+00
   1    6    6     2     3    2.7520E+01  2.5654E-01   2.7263E+01  0.000E+00  0.000E+00  0.000E+00  1.06307E+03  1.276E+00  1.200E+01  6.000E-02  1.425E+00
   1    7    6     2     4    2.7263E+01  2.5611E-01   2.7007E+01  0.000E+00  0.000E+00  0.000E+00  1.05834E+03  1.268E+00  1.200E+01  6.000E-02  1.423E+00
   1    8    6     2     5    2.7007E+01  2.5567E-01   2.6751E+01  0.000E+00  0.000E+00  0.000E+00  1.05362E+03  1.261E+00  1.200E+01  6.000E-02  1.420E+00
   1    3    5     3     1    2.0000E+00  2.8252E-01   1.7175E+00  0.000E+00  0.000E+00  0.000E+00  1.07555E+03  1.909E+00  9.636E+00  7.227E-02  1.955E+00
   1    3    6     3     2    1.7175E+00  2.4905E-01   1.4684E+00  0.000E+00  0.000E+00  0.000E+00  1.07264E+03  1.727E+00  8.909E+00  6.682E-02  1.864E+00
   1    3    7     3     3    1.4684E+00  1.9718E-01   1.2712E+00  0.000E+00  0.000E+00  0.000E+00  1.06987E+03  1.555E+00  8.218E+00  5.547E-02  1.777E+00
   1    4    8     3     4    1.2712E+00  2.2567E-01   1.0456E+00  0.000E+00  0.000E+00  0.000E+00  1.06682E+03  1.364E+00  7.455E+00  6.709E-02  1.682E+00
   1    5    8     3     5    1.0456E+00  1.5790E-01   8.8768E-01  0.000E+00  0.000E+00  0.000E+00  1.06362E+03  1.164E+00  6.655E+00  4.991E-02  1.582E+00
   1    6    8     3     6    8.8768E-01  5.5980E-02   8.3170E-01  0.000E+00  0.000E+00  0.000E+00  1.06158E+03  1.036E+00  6.145E+00  1.844E-02  1.518E+00
   1    5   10     4     1    1.0000E+01  9.0919E-02   9.9091E+00  0.000E+00  0.000E+00  0.000E+00  1.07836E+03  6.368E-01  1.000E+01  2.500E-02  1.212E+00
   1    5    9     4     2    9.9091E+00  1.8158E-01   9.7275E+00  0.000E+00  0.000E+00  0.000E+00  1.07154E+03  6.315E-01  1.000E+01  5.000E-02  1.211E+00
   1    6    8     4     3    9.7275E+00  1.2689E-01   9.6006E+00  0.000E+00  0.000E+00  0.000E+00  1.06381E+03  6.256E-01  1.000E+01  3.500E-02  1.209E+00
   1    6    8     5     1    1.0432E+01  2.2686E-01   1.0205E+01  0.000E+00  0.000E+00  0.000E+00  1.05868E+03  6.790E-01  1.542E+01  6.166E-02  1.226E+00
   1    7    7     5     2    1.0205E+01  2.7894E-01   9.9265E+00  0.000E+00  0.000E+00  0.000E+00  1.05417E+03  6.732E-01  1.519E+01  7.594E-02  1.224E+00
   1    8    7     5     3    9.9265E+00  1.9221E-01   9.7343E+00  0.000E+00  0.000E+00  0.000E+00  1.04992E+03  6.676E-01  1.497E+01  5.241E-02  1.223E+00
   1    8    6     5     4    9.7343E+00  1.3577E-01   9.5985E+00  0.000E+00  0.000E+00  0.000E+00  1.04691E+03  6.637E-01  1.482E+01  3.706E-02  1.221E+00
   1    9    6     6     1    9.5985E+00  2.2097E-01   9.3776E+00  0.000E+00  0.000E+00  0.000E+00  1.04341E+03  6.828E-01  1.200E+01  6.000E-02  1.228E+00
   1   10    7     6     2    9.3776E+00  2.2039E-01   9.1572E+00  0.000E+00  0.000E+00  0.000E+00  1.03885E+03  6.732E-01  1.200E+01  6.000E-02  1.224E+00
   1   11    7     6     3    9.1572E+00  2.1981E-01   8.9374E+00  0.000E+00  0.000E+00  0.000E+00  1.03430E+03  6.636E-01  1.200E+01  6.000E-02  1.221E+00
   1   12    7     6     4    8.9374E+00  2.1923E-01   8.7181E+00  0.000E+00  0.000E+00  0.000E+00  1.02974E+03  6.539E-01  1.200E+01  6.000E-02  1.218E+00
   1   13    7     6     5    8.7181E+00 -1.1059E-01   8.8287E+00  0.000E+00  0.000E+00  0.000E+00  1.02656E+03  6.514E-01  1.200E+01  2.400E-01 -1.536E-01
   1   14    9     7     1    1.5000E+02  1.3440E+00   1.4866E+02  0.000E+00  0.000E+00  0.000E+00  1.03987E+03  2.288E+00  5.529E+01  5.593E-01  8.010E-01
   1   13    8     7     2    1.4866E+02  1.8491E+00   1.4681E+02  0.000E+00  0.000E+00  0.000E+00  1.03478E+03  2.279E+00  5.526E+01  6.148E-01  1.003E+00
   1   13    7     7     3    1.4681E+02  1.4901E+00   1.4532E+02  0.000E+00  0.000E+00  0.000E+00  1.02969E+03  2.270E+00  5.522E+01  5.584E-01  8.894E-01
   1   13    6     8     1    1.5415E+02  8.4210E-01   1.5330E+02  0.000E+00  0.000E+00  0.000E+00  1.02472E+03  2.843E+00  4.122E+01  4.201E-01  6.682E-01
   1   13    5     8     2    1.5330E+02  1.1193E-01   1.5319E+02  0.000E+00  0.000E+00  0.000E+00  1.01846E+03  2.840E+00  4.117E+01  4.196E-01  8.893E-02
   1   13    4     8     3    1.5319E+02 -2.6407E+00   1.5583E+02  0.000E+00  0.000E+00  0.000E+00  1.01222E+03  2.848E+00  4.130E+01  4.209E+00 -2.091E-01
   1   13    3     8     4    1.5583E+02 -3.7285E+00   1.5956E+02  0.000E+00  0.000E+00  0.000E+00  1.00600E+03  2.870E+00  4.162E+01  4.241E+00 -2.931E-01
   1   13    2     8     5    1.5956E+02 -2.5937E+00   1.6215E+02  0.000E+00  0.000E+00  0.000E+00  9.99767E+02  2.892E+00  4.193E+01  4.273E+00 -2.024E-01
   1   13    1     8     6    1.6215E+02 -1.9795E+00   1.6413E+02  0.000E+00  0.000E+00  0.000E+00  9.94782E+02  2.907E+00  4.215E+01  2.577E+00 -2.560E-01
   1    8    6     9     1    2.6751E+01  0.0000E+00   2.6751E+01  0.000E+00  0.000E+00  0.000E+00  1.08284E+03  4.090E+00  4.000E+00  0.000E+00  2.363E+00
   1    8    5     9     2    2.6751E+01  0.0000E+00   2.6751E+01  0.000E+00  0.000E+00  0.000E+00  1.08234E+03  4.090E+00  4.000E+00  0.000E+00  2.363E+00





UNSATURATED ZONE PACKAGE VOLUMETRIC BUDGET FOR  TIME STEP    30 STRESS PERIOD   27
  ------------------------------------------------------------------------------



     CUMULATIVE VOLUMES      L**3       RATES FOR THIS TIME STEP      L**3/T
     ------------------                 ------------------------

           IN:                                      IN:
           ---                                      ---
        INFILTRATION =    58025270.6913          INFILTRATION =           0.8475

          OUT:                                     OUT:
          ----                                     ----
              UZF ET =    56254653.2054                UZF ET =           0.7500
        UZF RECHARGE =       73224.0000          UZF RECHARGE =       0.0000E+00

            IN - OUT =     1697393.4859              IN - OUT =       9.7500E-02

          STORAGE:                                 STORAGE:
          --------                                 --------
      STORAGE CHANGE =     1697393.7420        STORAGE CHANGE =       9.7500E-02

 PERCENT DISCREPANCY IS DIFFERENCE BETWEEN IN-OUT MINUS CHANGE IN STORAGE
 DIVIDED BY THE AVERAGE OF IN AND OUT TIMES 100

 PERCENT DISCREPANCY =           0.00     PERCENT DISCREPANCY =           0.00






1
  VOLUMETRIC BUDGET FOR ENTIRE MODEL AT END OF TIME STEP   30, STRESS PERIOD  27
  ------------------------------------------------------------------------------

     CUMULATIVE VOLUMES      L**3       RATES FOR THIS TIME STEP      L**3/T
     ------------------                 ------------------------

           IN:                                      IN:
           ---                                      ---
             STORAGE     =    25036670.0000               STORAGE     =           0.1462
       CONSTANT HEAD     =           0.0000         CONSTANT HEAD     =           0.0000
     HEAD DEP BOUNDS     =    19585318.0000       HEAD DEP BOUNDS     =           0.2863
      STREAM LEAKAGE     =   798055232.0000        STREAM LEAKAGE     =          11.6668
        UZF RECHARGE     =       73223.9531          UZF RECHARGE     =           0.0000
               GW ET     =           0.0000                 GW ET     =           0.0000
     SURFACE LEAKAGE     =           0.0000       SURFACE LEAKAGE     =           0.0000

                TOTAL IN =   842750464.0000                  TOTAL IN =          12.0993

          OUT:                                     OUT:
          ----                                     ----
             STORAGE     =    64498764.0000               STORAGE     =           0.7596
       CONSTANT HEAD     =           0.0000         CONSTANT HEAD     =           0.0000
     HEAD DEP BOUNDS     =    19644796.0000       HEAD DEP BOUNDS     =           0.2869
      STREAM LEAKAGE     =   758617728.0000        STREAM LEAKAGE     =          11.0530
        UZF RECHARGE     =           0.0000          UZF RECHARGE     =           0.0000
               GW ET     =           0.0000                 GW ET     =           0.0000
     SURFACE LEAKAGE     =           0.0000       SURFACE LEAKAGE     =           0.0000

               TOTAL OUT =   842761280.0000                 TOTAL OUT =          12.0995

                IN - OUT =      -10816.0000                  IN - OUT =      -1.7071E-04

     PERCENT DISCREPANCY =          -0.00         PERCENT DISCREPANCY =          -0.00






         TIME SUMMARY AT END OF TIME STEP   30 IN STRESS PERIOD   27
                    SECONDS     MINUTES      HOURS       DAYS        YEARS
                    -----------------------------------------------------------
   TIME STEP LENGTH  87667.      1461.1      24.352      1.0147     2.77799E-03
 STRESS PERIOD TIME 2.63000E+06  43833.      730.56      30.440     8.33397E-02
         TOTAL TIME 6.84668E+07 1.14111E+06  19019.      792.44      2.1696    
1
1
                            STRESS PERIOD NO.   28, LENGTH =   2630000.    
                            -----------------------------------------------

                              NUMBER OF TIME STEPS =    30

                               MULTIPLIER FOR DELT =     1.000

                            INITIAL TIME STEP SIZE =   87666.66    

 REUSING NON-PARAMETER GHB CELLS FROM LAST STRESS PERIOD

      2 GHB CELLS

 REUSING STREAM SEGMENT DATA FROM LAST STRESS PERIOD



            AREAL INFILTRATION RATE
 READING ON UNIT   19 WITH FORMAT: (FREE)              

            1           2           3           4           5           6           7           8           9          10
 ........................................................................................................................
   1   1.0000E-10  2.0000E-10   0.000       0.000       0.000       0.000       0.000       0.000       0.000       0.000    
   2   2.0000E-10  1.0000E-10  2.0000E-10   0.000       0.000      8.0000E-10  8.0000E-10  5.0000E-10   0.000       0.000    
   3    0.000      5.0000E-10  1.0000E-10  1.0000E-10  8.0000E-10  8.0000E-10  5.0000E-10  5.0000E-10   0.000       0.000    
   4   8.0000E-10  5.0000E-10  1.0000E-10  1.0000E-10  1.0000E-10  1.0000E-10  1.0000E-10  1.0000E-10  2.0000E-10   0.000    
   5   8.0000E-10  5.0000E-10  1.0000E-10  1.0000E-10  1.0000E-10  1.0000E-10  1.0000E-10  1.0000E-10  1.0000E-10  1.0000E-10
   6   8.0000E-10  5.0000E-10  5.0000E-10  2.0000E-10  2.0000E-10  1.0000E-10  1.0000E-10  1.0000E-10  1.0000E-10  5.0000E-10
   7   8.0000E-10  5.0000E-10  5.0000E-10  2.0000E-10  2.0000E-10  1.0000E-10  1.0000E-10  2.0000E-10  2.0000E-10   0.000    
   8    0.000      5.0000E-10  5.0000E-10  2.0000E-10  2.0000E-10  1.0000E-10  1.0000E-10  2.0000E-10  5.0000E-10   0.000    
   9    0.000      5.0000E-10  5.0000E-10  2.0000E-10  2.0000E-10  1.0000E-10  1.0000E-10  2.0000E-10  5.0000E-10   0.000    
  10    0.000      5.0000E-10  5.0000E-10  2.0000E-10  2.0000E-10  1.0000E-10  1.0000E-10  2.0000E-10  5.0000E-10  8.0000E-10
  11    0.000      1.0000E-10  1.0000E-10  1.0000E-10  1.0000E-10  1.0000E-10  1.0000E-10  2.0000E-10  5.0000E-10   0.000    
  12   1.0000E-10  1.0000E-10  1.0000E-10  1.0000E-10  1.0000E-10  1.0000E-10  1.0000E-10  1.0000E-10  2.0000E-10   0.000    
  13   1.0000E-10  1.0000E-10  2.0000E-10  2.0000E-10  2.0000E-10  2.0000E-10  2.0000E-10  1.0000E-10  1.0000E-10   0.000    
  14    0.000      2.0000E-10  5.0000E-10  5.0000E-10  5.0000E-10  5.0000E-10  5.0000E-10  2.0000E-10  1.0000E-10   0.000    
  15    0.000       0.000      8.0000E-10  8.0000E-10  8.0000E-10  8.0000E-10   0.000       0.000       0.000       0.000    

                  ET RATE =  5.000000E-10

 USING ET EXTINCTION DEPTH FROM PREVIOUS STRESS PERIOD. CURRENT PERIOD IS:      28

 USING EXTINCTION WATER CONTENT FROM PREVIOUS STRESS PERIOD. CURRENT PERIOD IS:      28

 USING AIR ENTRY PRESSURE FROM PREVIOUS STRESS PERIOD. CURRENT PERIOD IS:      28

 USING ROOT PRESSURE HEAD FROM PREVIOUS STRESS PERIOD. CURRENT PERIOD IS:      28

 USING ROOT ACTIVITY FROM PREVIOUS STRESS PERIOD. CURRENT PERIOD IS:      28
 
 SOLVING FOR HEAD 
                                                   Max.-Head-Change                         Max.-Flux-Residual
  Residual-Control   Outer-Iter.   Inner-Iter.     Column Row Layer    Maximum-Head-Change  Column Row Layer    Maximum-Flux-Residual          L2-NORM 
          0                 1           2             2    2     1       0.3682412190E-02       2    2    1         0.1922506130E+00      0.3503594330E+00
          0                 2           2             2    2     1      -0.3581989493E-03       2    2    1        -0.1922510496E-01      0.3503597607E-01
          0                 3           1             2    2     1       0.2439201387E-04       2    2    1         0.1345757508E-02      0.2452518392E-02

    ------------------------------------------------
       NWT REQUIRED            3 OUTER ITERATIONS 
       AND A TOTAL OF          5 INNER ITERATIONS.
    ------------------------------------------------

 NO OUTPUT CONTROL FOR STRESS PERIOD   28   TIME STEP    1
 
 SOLVING FOR HEAD 
                                                   Max.-Head-Change                         Max.-Flux-Residual
  Residual-Control   Outer-Iter.   Inner-Iter.     Column Row Layer    Maximum-Head-Change  Column Row Layer    Maximum-Flux-Residual          L2-NORM 
          0                 1           2             2    2     1       0.4683366847E-02       2    2    1         0.2445734254E+00      0.4380032058E+00
          0                 2           2             2    2     1      -0.4555649476E-03       2    2    1        -0.2445741297E-01      0.4380038158E-01
          0                 3           1             2    2     1       0.3102227381E-04       2    2    1         0.1712018981E-02      0.3066028001E-02

    ------------------------------------------------
       NWT REQUIRED            3 OUTER ITERATIONS 
       AND A TOTAL OF          5 INNER ITERATIONS.
    ------------------------------------------------

 NO OUTPUT CONTROL FOR STRESS PERIOD   28   TIME STEP    2
 
 SOLVING FOR HEAD 
                                                   Max.-Head-Change                         Max.-Flux-Residual
  Residual-Control   Outer-Iter.   Inner-Iter.     Column Row Layer    Maximum-Head-Change  Column Row Layer    Maximum-Flux-Residual          L2-NORM 
          0                 1           2             2    2     1       0.4653259032E-02       2    2    1         0.2429890902E+00      0.4347715626E+00
          0                 2           2             2    2     1      -0.4526362590E-03       2    2    1        -0.2429897820E-01      0.4347721428E-01
          0                 3           1             2    2     1       0.3082284108E-04       2    2    1         0.1700928559E-02      0.3043406324E-02

    ------------------------------------------------
       NWT REQUIRED            3 OUTER ITERATIONS 
       AND A TOTAL OF          5 INNER ITERATIONS.
    ------------------------------------------------

 NO OUTPUT CONTROL FOR STRESS PERIOD   28   TIME STEP    3
 
 SOLVING FOR HEAD 
                                                   Max.-Head-Change                         Max.-Flux-Residual
  Residual-Control   Outer-Iter.   Inner-Iter.     Column Row Layer    Maximum-Head-Change  Column Row Layer    Maximum-Flux-Residual          L2-NORM 
          0                 1           2             2    2     1       0.4623505475E-02       2    2    1         0.2414234521E+00      0.4316795410E+00
          0                 2           2             2    2     1      -0.4497420310E-03       2    2    1        -0.2414241317E-01      0.4316801107E-01
          0                 3           1             2    2     1       0.3062575496E-04       2    2    1         0.1689969018E-02      0.3021763315E-02

    ------------------------------------------------
       NWT REQUIRED            3 OUTER ITERATIONS 
       AND A TOTAL OF          5 INNER ITERATIONS.
    ------------------------------------------------

 NO OUTPUT CONTROL FOR STRESS PERIOD   28   TIME STEP    4
 
 SOLVING FOR HEAD 
                                                   Max.-Head-Change                         Max.-Flux-Residual
  Residual-Control   Outer-Iter.   Inner-Iter.     Column Row Layer    Maximum-Head-Change  Column Row Layer    Maximum-Flux-Residual          L2-NORM 
          0                 1           2             2    2     1       0.4594274515E-02       2    2    1         0.2398853457E+00      0.4287333108E+00
          0                 2           2             2    2     1      -0.4468986370E-03       2    2    1        -0.2398860132E-01      0.4287338893E-01
          0                 3           1             2    2     1       0.3043213019E-04       2    2    1         0.1679202167E-02      0.3001152832E-02

    ------------------------------------------------
       NWT REQUIRED            3 OUTER ITERATIONS 
       AND A TOTAL OF          5 INNER ITERATIONS.
    ------------------------------------------------

 NO OUTPUT CONTROL FOR STRESS PERIOD   28   TIME STEP    5
 
 SOLVING FOR HEAD 
                                                   Max.-Head-Change                         Max.-Flux-Residual
  Residual-Control   Outer-Iter.   Inner-Iter.     Column Row Layer    Maximum-Head-Change  Column Row Layer    Maximum-Flux-Residual          L2-NORM 
          0                 1           2             2    2     1       0.4565383341E-02       2    2    1         0.2383651712E+00      0.4259046767E+00
          0                 2           2             2    2     1      -0.4440882966E-03       2    2    1        -0.2383658272E-01      0.4259052252E-01
          0                 3           1             2    2     1       0.3024075713E-04       2    2    1         0.1668560896E-02      0.2981337527E-02

    ------------------------------------------------
       NWT REQUIRED            3 OUTER ITERATIONS 
       AND A TOTAL OF          5 INNER ITERATIONS.
    ------------------------------------------------

 NO OUTPUT CONTROL FOR STRESS PERIOD   28   TIME STEP    6
 
 SOLVING FOR HEAD 
                                                   Max.-Head-Change                         Max.-Flux-Residual
  Residual-Control   Outer-Iter.   Inner-Iter.     Column Row Layer    Maximum-Head-Change  Column Row Layer    Maximum-Flux-Residual          L2-NORM 
          0                 1           2             2    2     1       0.4536914035E-02       2    2    1         0.2368671963E+00      0.4232014566E+00
          0                 2           2             2    2     1      -0.4413189921E-03       2    2    1        -0.2368678409E-01      0.4232019820E-01
          0                 3           1             2    2     1       0.3005217799E-04       2    2    1         0.1658074984E-02      0.2962415717E-02

    ------------------------------------------------
       NWT REQUIRED            3 OUTER ITERATIONS 
       AND A TOTAL OF          5 INNER ITERATIONS.
    ------------------------------------------------

 NO OUTPUT CONTROL FOR STRESS PERIOD   28   TIME STEP    7
 
 SOLVING FOR HEAD 
                                                   Max.-Head-Change                         Max.-Flux-Residual
  Residual-Control   Outer-Iter.   Inner-Iter.     Column Row Layer    Maximum-Head-Change  Column Row Layer    Maximum-Flux-Residual          L2-NORM 
          0                 1           2             2    2     1       0.4508858876E-02       2    2    1         0.2353910948E+00      0.4206016824E+00
          0                 2           2             2    2     1      -0.4385899727E-03       2    2    1        -0.2353917281E-01      0.4206022197E-01
          0                 3           1             2    2     1       0.2986634167E-04       2    2    1         0.1647742196E-02      0.2944219174E-02

    ------------------------------------------------
       NWT REQUIRED            3 OUTER ITERATIONS 
       AND A TOTAL OF          5 INNER ITERATIONS.
    ------------------------------------------------

 NO OUTPUT CONTROL FOR STRESS PERIOD   28   TIME STEP    8
 
 SOLVING FOR HEAD 
                                                   Max.-Head-Change                         Max.-Flux-Residual
  Residual-Control   Outer-Iter.   Inner-Iter.     Column Row Layer    Maximum-Head-Change  Column Row Layer    Maximum-Flux-Residual          L2-NORM 
          0                 1           2             2    2     1       0.4481211780E-02       2    2    1         0.2339364664E+00      0.4181051961E+00
          0                 2           2             2    2     1      -0.4359006480E-03       2    2    1        -0.2339370889E-01      0.4181056824E-01
          0                 3           1             2    2     1       0.2968320910E-04       2    2    1         0.1637559738E-02      0.2926739711E-02

    ------------------------------------------------
       NWT REQUIRED            3 OUTER ITERATIONS 
       AND A TOTAL OF          5 INNER ITERATIONS.
    ------------------------------------------------

 NO OUTPUT CONTROL FOR STRESS PERIOD   28   TIME STEP    9
 
 SOLVING FOR HEAD 
                                                   Max.-Head-Change                         Max.-Flux-Residual
  Residual-Control   Outer-Iter.   Inner-Iter.     Column Row Layer    Maximum-Head-Change  Column Row Layer    Maximum-Flux-Residual          L2-NORM 
          0                 1           2             2    2     1       0.4453878389E-02       2    2    1         0.2324984129E+00      0.4157080818E+00
          0                 2           2             2    2     1      -0.4332418385E-03       2    2    1        -0.2324990247E-01      0.4157085775E-01
          0                 3           1             2    2     1       0.2950215381E-04       2    2    1         0.1627493300E-02      0.2909961108E-02

    ------------------------------------------------
       NWT REQUIRED            3 OUTER ITERATIONS 
       AND A TOTAL OF          5 INNER ITERATIONS.
    ------------------------------------------------

 NO OUTPUT CONTROL FOR STRESS PERIOD   28   TIME STEP   10
 
 SOLVING FOR HEAD 
                                                   Max.-Head-Change                         Max.-Flux-Residual
  Residual-Control   Outer-Iter.   Inner-Iter.     Column Row Layer    Maximum-Head-Change  Column Row Layer    Maximum-Flux-Residual          L2-NORM 
          0                 1           2             2    2     1       0.4426940472E-02       2    2    1         0.2310812072E+00      0.4133959416E+00
          0                 2           2             2    2     1      -0.4306214977E-03       2    2    1        -0.2310818084E-01      0.4133964203E-01
          0                 3           1             2    2     1       0.2932371873E-04       2    2    1         0.1617572789E-02      0.2893776606E-02

    ------------------------------------------------
       NWT REQUIRED            3 OUTER ITERATIONS 
       AND A TOTAL OF          5 INNER ITERATIONS.
    ------------------------------------------------

 NO OUTPUT CONTROL FOR STRESS PERIOD   28   TIME STEP   11
 
 SOLVING FOR HEAD 
                                                   Max.-Head-Change                         Max.-Flux-Residual
  Residual-Control   Outer-Iter.   Inner-Iter.     Column Row Layer    Maximum-Head-Change  Column Row Layer    Maximum-Flux-Residual          L2-NORM 
          0                 1           2             2    2     1       0.4400391533E-02       2    2    1         0.2296845065E+00      0.4111713993E+00
          0                 2           2             2    2     1      -0.4280389945E-03       2    2    1        -0.2296850977E-01      0.4111718719E-01
          0                 3           1             2    2     1       0.2914785984E-04       2    2    1         0.1607795808E-02      0.2878203842E-02

    ------------------------------------------------
       NWT REQUIRED            3 OUTER ITERATIONS 
       AND A TOTAL OF          5 INNER ITERATIONS.
    ------------------------------------------------

 NO OUTPUT CONTROL FOR STRESS PERIOD   28   TIME STEP   12
 
 SOLVING FOR HEAD 
                                                   Max.-Head-Change                         Max.-Flux-Residual
  Residual-Control   Outer-Iter.   Inner-Iter.     Column Row Layer    Maximum-Head-Change  Column Row Layer    Maximum-Flux-Residual          L2-NORM 
          0                 1           2             2    2     1       0.4374225571E-02       2    2    1         0.2283079738E+00      0.4090245323E+00
          0                 2           2             2    2     1      -0.4254937446E-03       2    2    1        -0.2283085549E-01      0.4090249951E-01
          0                 3           1             2    2     1       0.2897453808E-04       2    2    1         0.1598160025E-02      0.2863175220E-02

    ------------------------------------------------
       NWT REQUIRED            3 OUTER ITERATIONS 
       AND A TOTAL OF          5 INNER ITERATIONS.
    ------------------------------------------------

 NO OUTPUT CONTROL FOR STRESS PERIOD   28   TIME STEP   13
 
 SOLVING FOR HEAD 
                                                   Max.-Head-Change                         Max.-Flux-Residual
  Residual-Control   Outer-Iter.   Inner-Iter.     Column Row Layer    Maximum-Head-Change  Column Row Layer    Maximum-Flux-Residual          L2-NORM 
          0                 1           2             2    2     1       0.4348348648E-02       2    2    1         0.2269467148E+00      0.4069590270E+00
          0                 2           2             2    2     1      -0.4229766108E-03       2    2    1        -0.2269472862E-01      0.4069594719E-01
          0                 3           1             2    2     1       0.2880313054E-04       2    2    1         0.1588631131E-02      0.2848718319E-02

    ------------------------------------------------
       NWT REQUIRED            3 OUTER ITERATIONS 
       AND A TOTAL OF          5 INNER ITERATIONS.
    ------------------------------------------------

 NO OUTPUT CONTROL FOR STRESS PERIOD   28   TIME STEP   14
 
 SOLVING FOR HEAD 
                                                   Max.-Head-Change                         Max.-Flux-Residual
  Residual-Control   Outer-Iter.   Inner-Iter.     Column Row Layer    Maximum-Head-Change  Column Row Layer    Maximum-Flux-Residual          L2-NORM 
          0                 1           2             2    2     1       0.4322930996E-02       2    2    1         0.2256096088E+00      0.4049556919E+00
          0                 2           2             2    2     1      -0.4205041520E-03       2    2    1        -0.2256101706E-01      0.4049561372E-01
          0                 3           1             2    2     1       0.2863476567E-04       2    2    1         0.1579271339E-02      0.2834694310E-02

    ------------------------------------------------
       NWT REQUIRED            3 OUTER ITERATIONS 
       AND A TOTAL OF          5 INNER ITERATIONS.
    ------------------------------------------------

 NO OUTPUT CONTROL FOR STRESS PERIOD   28   TIME STEP   15
 
 SOLVING FOR HEAD 
                                                   Max.-Head-Change                         Max.-Flux-Residual
  Residual-Control   Outer-Iter.   Inner-Iter.     Column Row Layer    Maximum-Head-Change  Column Row Layer    Maximum-Flux-Residual          L2-NORM 
          0                 1           2             2    2     1       0.4297790488E-02       2    2    1         0.2242871485E+00      0.4030226466E+00
          0                 2           2             2    2     1      -0.4180586521E-03       2    2    1        -0.2242877010E-01      0.4030230862E-01
          0                 3           1             2    2     1       0.2846823644E-04       2    2    1         0.1570014070E-02      0.2821161884E-02

    ------------------------------------------------
       NWT REQUIRED            3 OUTER ITERATIONS 
       AND A TOTAL OF          5 INNER ITERATIONS.
    ------------------------------------------------

 NO OUTPUT CONTROL FOR STRESS PERIOD   28   TIME STEP   16
 
 SOLVING FOR HEAD 
                                                   Max.-Head-Change                         Max.-Flux-Residual
  Residual-Control   Outer-Iter.   Inner-Iter.     Column Row Layer    Maximum-Head-Change  Column Row Layer    Maximum-Flux-Residual          L2-NORM 
          0                 1           2             2    2     1       0.4273009568E-02       2    2    1         0.2229836413E+00      0.4011501597E+00
          0                 2           2             2    2     1      -0.4156481303E-03       2    2    1        -0.2229841847E-01      0.4011505912E-01
          0                 3           1             2    2     1       0.2830408862E-04       2    2    1         0.1560889440E-02      0.2808055053E-02

    ------------------------------------------------
       NWT REQUIRED            3 OUTER ITERATIONS 
       AND A TOTAL OF          5 INNER ITERATIONS.
    ------------------------------------------------

 NO OUTPUT CONTROL FOR STRESS PERIOD   28   TIME STEP   17
 
 SOLVING FOR HEAD 
                                                   Max.-Head-Change                         Max.-Flux-Residual
  Residual-Control   Outer-Iter.   Inner-Iter.     Column Row Layer    Maximum-Head-Change  Column Row Layer    Maximum-Flux-Residual          L2-NORM 
          0                 1           2             2    2     1       0.4248582739E-02       2    2    1         0.2216987784E+00      0.3993483758E+00
          0                 2           2             2    2     1      -0.4132720523E-03       2    2    1        -0.2216993128E-01      0.3993487718E-01
          0                 3           1             2    2     1       0.2814228670E-04       2    2    1         0.1551895348E-02      0.2795442433E-02

    ------------------------------------------------
       NWT REQUIRED            3 OUTER ITERATIONS 
       AND A TOTAL OF          5 INNER ITERATIONS.
    ------------------------------------------------

 NO OUTPUT CONTROL FOR STRESS PERIOD   28   TIME STEP   18
 
 SOLVING FOR HEAD 
                                                   Max.-Head-Change                         Max.-Flux-Residual
  Residual-Control   Outer-Iter.   Inner-Iter.     Column Row Layer    Maximum-Head-Change  Column Row Layer    Maximum-Flux-Residual          L2-NORM 
          0                 1           2             2    2     1       0.4224504262E-02       2    2    1         0.2204322748E+00      0.3975900899E+00
          0                 2           2             2    2     1      -0.4109298604E-03       2    2    1        -0.2204328005E-01      0.3975905150E-01
          0                 3           1             2    2     1       0.2798279235E-04       2    2    1         0.1543029782E-02      0.2783134882E-02

    ------------------------------------------------
       NWT REQUIRED            3 OUTER ITERATIONS 
       AND A TOTAL OF          5 INNER ITERATIONS.
    ------------------------------------------------

 NO OUTPUT CONTROL FOR STRESS PERIOD   28   TIME STEP   19
 
 SOLVING FOR HEAD 
                                                   Max.-Head-Change                         Max.-Flux-Residual
  Residual-Control   Outer-Iter.   Inner-Iter.     Column Row Layer    Maximum-Head-Change  Column Row Layer    Maximum-Flux-Residual          L2-NORM 
          0                 1           2             2    2     1       0.4200680701E-02       2    2    1         0.2191792486E+00      0.3958913816E+00
          0                 2           2             2    2     1      -0.4086124643E-03       2    2    1        -0.2191797658E-01      0.3958917775E-01
          0                 3           1             2    2     1       0.2782498642E-04       2    2    1         0.1534258529E-02      0.2771243164E-02

    ------------------------------------------------
       NWT REQUIRED            3 OUTER ITERATIONS 
       AND A TOTAL OF          5 INNER ITERATIONS.
    ------------------------------------------------

 NO OUTPUT CONTROL FOR STRESS PERIOD   28   TIME STEP   20
 
 SOLVING FOR HEAD 
                                                   Max.-Head-Change                         Max.-Flux-Residual
  Residual-Control   Outer-Iter.   Inner-Iter.     Column Row Layer    Maximum-Head-Change  Column Row Layer    Maximum-Flux-Residual          L2-NORM 
          0                 1           2             2    2     1       0.4177194936E-02       2    2    1         0.2179440236E+00      0.3942434564E+00
          0                 2           2             2    2     1      -0.4063279272E-03       2    2    1        -0.2179445323E-01      0.3942438329E-01
          0                 3           1             2    2     1       0.2766941824E-04       2    2    1         0.1525611919E-02      0.2759707487E-02

    ------------------------------------------------
       NWT REQUIRED            3 OUTER ITERATIONS 
       AND A TOTAL OF          5 INNER ITERATIONS.
    ------------------------------------------------

 NO OUTPUT CONTROL FOR STRESS PERIOD   28   TIME STEP   21
 
 SOLVING FOR HEAD 
                                                   Max.-Head-Change                         Max.-Flux-Residual
  Residual-Control   Outer-Iter.   Inner-Iter.     Column Row Layer    Maximum-Head-Change  Column Row Layer    Maximum-Flux-Residual          L2-NORM 
          0                 1           2             2    2     1       0.4154042210E-02       2    2    1         0.2167263130E+00      0.3926408360E+00
          0                 2           2             2    2     1      -0.4040757856E-03       2    2    1        -0.2167268134E-01      0.3926412117E-01
          0                 3           1             2    2     1       0.2751605538E-04       2    2    1         0.1517087867E-02      0.2748489244E-02

    ------------------------------------------------
       NWT REQUIRED            3 OUTER ITERATIONS 
       AND A TOTAL OF          5 INNER ITERATIONS.
    ------------------------------------------------

 NO OUTPUT CONTROL FOR STRESS PERIOD   28   TIME STEP   22
 
 SOLVING FOR HEAD 
                                                   Max.-Head-Change                         Max.-Flux-Residual
  Residual-Control   Outer-Iter.   Inner-Iter.     Column Row Layer    Maximum-Head-Change  Column Row Layer    Maximum-Flux-Residual          L2-NORM 
          0                 1           2             2    2     1       0.4131216743E-02       2    2    1         0.2155258701E+00      0.3910921678E+00
          0                 2           2             2    2     1      -0.4018554783E-03       2    2    1        -0.2155263625E-01      0.3910925325E-01
          0                 3           1             2    2     1       0.2736486115E-04       2    2    1         0.1508684735E-02      0.2737648146E-02

    ------------------------------------------------
       NWT REQUIRED            3 OUTER ITERATIONS 
       AND A TOTAL OF          5 INNER ITERATIONS.
    ------------------------------------------------

 NO OUTPUT CONTROL FOR STRESS PERIOD   28   TIME STEP   23
 
 SOLVING FOR HEAD 
                                                   Max.-Head-Change                         Max.-Flux-Residual
  Residual-Control   Outer-Iter.   Inner-Iter.     Column Row Layer    Maximum-Head-Change  Column Row Layer    Maximum-Flux-Residual          L2-NORM 
          0                 1           2             2    2     1       0.4108713220E-02       2    2    1         0.2143423952E+00      0.3895855766E+00
          0                 2           2             2    2     1      -0.3996664872E-03       2    2    1        -0.2143428796E-01      0.3895859303E-01
          0                 3           1             2    2     1       0.2721579936E-04       2    2    1         0.1500400374E-02      0.2727101533E-02

    ------------------------------------------------
       NWT REQUIRED            3 OUTER ITERATIONS 
       AND A TOTAL OF          5 INNER ITERATIONS.
    ------------------------------------------------

 NO OUTPUT CONTROL FOR STRESS PERIOD   28   TIME STEP   24
 
 SOLVING FOR HEAD 
                                                   Max.-Head-Change                         Max.-Flux-Residual
  Residual-Control   Outer-Iter.   Inner-Iter.     Column Row Layer    Maximum-Head-Change  Column Row Layer    Maximum-Flux-Residual          L2-NORM 
          0                 1           2             2    2     1       0.4086526822E-02       2    2    1         0.2131756128E+00      0.3881227986E+00
          0                 2           2             2    2     1      -0.3975083438E-03       2    2    1        -0.2131760897E-01      0.3881231513E-01
          0                 3           1             2    2     1       0.2706883733E-04       2    2    1         0.1492232821E-02      0.2716862888E-02

    ------------------------------------------------
       NWT REQUIRED            3 OUTER ITERATIONS 
       AND A TOTAL OF          5 INNER ITERATIONS.
    ------------------------------------------------

 NO OUTPUT CONTROL FOR STRESS PERIOD   28   TIME STEP   25
 
 SOLVING FOR HEAD 
                                                   Max.-Head-Change                         Max.-Flux-Residual
  Residual-Control   Outer-Iter.   Inner-Iter.     Column Row Layer    Maximum-Head-Change  Column Row Layer    Maximum-Flux-Residual          L2-NORM 
          0                 1           2             2    2     1       0.4064564704E-02       2    2    1         0.2120206880E+00      0.3867007251E+00
          0                 2           2             2    2     1      -0.3953720172E-03       2    2    1        -0.2120211572E-01      0.3867010772E-01
          0                 3           1             2    2     1       0.2692336208E-04       2    2    1         0.1484148303E-02      0.2706908246E-02

    ------------------------------------------------
       NWT REQUIRED            3 OUTER ITERATIONS 
       AND A TOTAL OF          5 INNER ITERATIONS.
    ------------------------------------------------

 NO OUTPUT CONTROL FOR STRESS PERIOD   28   TIME STEP   26
 
 SOLVING FOR HEAD 
                                                   Max.-Head-Change                         Max.-Flux-Residual
  Residual-Control   Outer-Iter.   Inner-Iter.     Column Row Layer    Maximum-Head-Change  Column Row Layer    Maximum-Flux-Residual          L2-NORM 
          0                 1           2             2    2     1       0.4042910613E-02       2    2    1         0.2108819767E+00      0.3853182913E+00
          0                 2           2             2    2     1      -0.3932656536E-03       2    2    1        -0.2108824387E-01      0.3853186321E-01
          0                 3           1             2    2     1       0.2677992648E-04       2    2    1         0.1476177275E-02      0.2697231924E-02

    ------------------------------------------------
       NWT REQUIRED            3 OUTER ITERATIONS 
       AND A TOTAL OF          5 INNER ITERATIONS.
    ------------------------------------------------

 NO OUTPUT CONTROL FOR STRESS PERIOD   28   TIME STEP   27
 
 SOLVING FOR HEAD 
                                                   Max.-Head-Change                         Max.-Flux-Residual
  Residual-Control   Outer-Iter.   Inner-Iter.     Column Row Layer    Maximum-Head-Change  Column Row Layer    Maximum-Flux-Residual          L2-NORM 
          0                 1           2             2    2     1       0.4021646909E-02       2    2    1         0.2097638215E+00      0.3839708808E+00
          0                 2           2             2    2     1      -0.3911972640E-03       2    2    1        -0.2097642762E-01      0.3839712182E-01
          0                 3           1             2    2     1       0.2663907677E-04       2    2    1         0.1468350141E-02      0.2687798869E-02

    ------------------------------------------------
       NWT REQUIRED            3 OUTER ITERATIONS 
       AND A TOTAL OF          5 INNER ITERATIONS.
    ------------------------------------------------

 NO OUTPUT CONTROL FOR STRESS PERIOD   28   TIME STEP   28
 
 SOLVING FOR HEAD 
                                                   Max.-Head-Change                         Max.-Flux-Residual
  Residual-Control   Outer-Iter.   Inner-Iter.     Column Row Layer    Maximum-Head-Change  Column Row Layer    Maximum-Flux-Residual          L2-NORM 
          0                 1           2             2    2     1       0.4000592956E-02       2    2    1         0.2086567370E+00      0.3826571574E+00
          0                 2           2             2    2     1      -0.3891492781E-03       2    2    1        -0.2086571847E-01      0.3826574800E-01
          0                 3           1             2    2     1       0.2649961657E-04       2    2    1         0.1460600514E-02      0.2678603327E-02

    ------------------------------------------------
       NWT REQUIRED            3 OUTER ITERATIONS 
       AND A TOTAL OF          5 INNER ITERATIONS.
    ------------------------------------------------

 NO OUTPUT CONTROL FOR STRESS PERIOD   28   TIME STEP   29
 
 SOLVING FOR HEAD 
                                                   Max.-Head-Change                         Max.-Flux-Residual
  Residual-Control   Outer-Iter.   Inner-Iter.     Column Row Layer    Maximum-Head-Change  Column Row Layer    Maximum-Flux-Residual          L2-NORM 
          0                 1           2             2    2     1       0.3979744689E-02       2    2    1         0.2075605277E+00      0.3813788732E+00
          0                 2           2             2    2     1      -0.3871212997E-03       2    2    1        -0.2075609684E-01      0.3813791991E-01
          0                 3           1             2    2     1       0.2636151890E-04       2    2    1         0.1452926990E-02      0.2669655372E-02

    ------------------------------------------------
       NWT REQUIRED            3 OUTER ITERATIONS 
       AND A TOTAL OF          5 INNER ITERATIONS.
    ------------------------------------------------

 NO OUTPUT CONTROL FOR STRESS PERIOD   28   TIME STEP   30



 STREAM LISTING     PERIOD     28   STEP       30

 LAYER ROW COL. STREAM  RCH.  FLOW INTO     FLOW TO   FLOW OUT OF   OVRLND.     DIRECT     STREAM       STREAM     STREAM     STREAM   STREAMBED  STREAMBED
                SEG.NO.  NO.  STRM. RCH.    AQUIFER    STRM. RCH.    RUNOFF     PRECIP       ET          HEAD       DEPTH      WIDTH   CONDCTNC.   GRADIENT

   1    1    1     1     1    5.7748E+01  3.6407E-01   5.7384E+01  0.000E+00  0.000E+00  0.000E+00  1.09455E+03  1.498E+00  1.799E+01  8.095E-02  1.499E+00
   1    2    2     1     2    5.7384E+01  5.6377E-01   5.6820E+01  0.000E+00  0.000E+00  0.000E+00  1.08955E+03  1.492E+00  1.793E+01  1.255E-01  1.497E+00
   1    3    3     1     3    5.6820E+01  4.8075E-01   5.6340E+01  0.000E+00  0.000E+00  0.000E+00  1.08390E+03  1.485E+00  1.786E+01  1.072E-01  1.495E+00
   1    3    4     1     4    5.6340E+01  4.4266E-01   5.5897E+01  0.000E+00  0.000E+00  0.000E+00  1.07889E+03  1.480E+00  1.781E+01  9.882E-02  1.493E+00
   1    4    5     2     1    5.3897E+01  3.8302E-01   5.3514E+01  0.000E+00  0.000E+00  0.000E+00  1.07384E+03  1.911E+00  1.200E+01  7.800E-02  1.637E+00
   1    5    6     2     2    5.3514E+01  2.9420E-01   5.3220E+01  0.000E+00  0.000E+00  0.000E+00  1.06841E+03  1.903E+00  1.200E+01  6.000E-02  1.634E+00
   1    6    6     2     3    5.3220E+01  2.9382E-01   5.2926E+01  0.000E+00  0.000E+00  0.000E+00  1.06369E+03  1.897E+00  1.200E+01  6.000E-02  1.632E+00
   1    7    6     2     4    5.2926E+01  2.9344E-01   5.2633E+01  0.000E+00  0.000E+00  0.000E+00  1.05897E+03  1.891E+00  1.200E+01  6.000E-02  1.630E+00
   1    8    6     2     5    5.2633E+01  2.9306E-01   5.2339E+01  0.000E+00  0.000E+00  0.000E+00  1.05424E+03  1.884E+00  1.200E+01  6.000E-02  1.628E+00
   1    3    5     3     1    2.0000E+00  2.8252E-01   1.7175E+00  0.000E+00  0.000E+00  0.000E+00  1.07555E+03  1.909E+00  9.636E+00  7.227E-02  1.955E+00
   1    3    6     3     2    1.7175E+00  2.4905E-01   1.4684E+00  0.000E+00  0.000E+00  0.000E+00  1.07264E+03  1.727E+00  8.909E+00  6.682E-02  1.864E+00
   1    3    7     3     3    1.4684E+00  1.9718E-01   1.2712E+00  0.000E+00  0.000E+00  0.000E+00  1.06987E+03  1.555E+00  8.218E+00  5.547E-02  1.777E+00
   1    4    8     3     4    1.2712E+00  2.2567E-01   1.0456E+00  0.000E+00  0.000E+00  0.000E+00  1.06682E+03  1.364E+00  7.455E+00  6.709E-02  1.682E+00
   1    5    8     3     5    1.0456E+00  1.5790E-01   8.8768E-01  0.000E+00  0.000E+00  0.000E+00  1.06362E+03  1.164E+00  6.655E+00  4.991E-02  1.582E+00
   1    6    8     3     6    8.8768E-01  5.5980E-02   8.3170E-01  0.000E+00  0.000E+00  0.000E+00  1.06158E+03  1.036E+00  6.145E+00  1.844E-02  1.518E+00
   1    5   10     4     1    1.0000E+01  9.0919E-02   9.9091E+00  0.000E+00  0.000E+00  0.000E+00  1.07836E+03  6.368E-01  1.000E+01  2.500E-02  1.212E+00
   1    5    9     4     2    9.9091E+00  1.8158E-01   9.7275E+00  0.000E+00  0.000E+00  0.000E+00  1.07154E+03  6.315E-01  1.000E+01  5.000E-02  1.211E+00
   1    6    8     4     3    9.7275E+00  1.2689E-01   9.6006E+00  0.000E+00  0.000E+00  0.000E+00  1.06381E+03  6.256E-01  1.000E+01  3.500E-02  1.209E+00
   1    6    8     5     1    1.0432E+01  2.2686E-01   1.0205E+01  0.000E+00  0.000E+00  0.000E+00  1.05868E+03  6.790E-01  1.542E+01  6.166E-02  1.226E+00
   1    7    7     5     2    1.0205E+01  2.7894E-01   9.9265E+00  0.000E+00  0.000E+00  0.000E+00  1.05417E+03  6.732E-01  1.519E+01  7.594E-02  1.224E+00
   1    8    7     5     3    9.9265E+00  1.9221E-01   9.7343E+00  0.000E+00  0.000E+00  0.000E+00  1.04992E+03  6.676E-01  1.497E+01  5.241E-02  1.223E+00
   1    8    6     5     4    9.7343E+00  1.3577E-01   9.5985E+00  0.000E+00  0.000E+00  0.000E+00  1.04691E+03  6.637E-01  1.482E+01  3.706E-02  1.221E+00
   1    9    6     6     1    9.5985E+00  2.2097E-01   9.3776E+00  0.000E+00  0.000E+00  0.000E+00  1.04341E+03  6.828E-01  1.200E+01  6.000E-02  1.228E+00
   1   10    7     6     2    9.3776E+00  2.2039E-01   9.1572E+00  0.000E+00  0.000E+00  0.000E+00  1.03885E+03  6.732E-01  1.200E+01  6.000E-02  1.224E+00
   1   11    7     6     3    9.1572E+00  2.1981E-01   8.9374E+00  0.000E+00  0.000E+00  0.000E+00  1.03430E+03  6.636E-01  1.200E+01  6.000E-02  1.221E+00
   1   12    7     6     4    8.9374E+00  2.1923E-01   8.7181E+00  0.000E+00  0.000E+00  0.000E+00  1.02974E+03  6.539E-01  1.200E+01  6.000E-02  1.218E+00
   1   13    7     6     5    8.7181E+00 -1.1053E-01   8.8287E+00  0.000E+00  0.000E+00  0.000E+00  1.02656E+03  6.514E-01  1.200E+01  2.400E-01 -1.535E-01
   1   14    9     7     1    1.5000E+02  1.3442E+00   1.4866E+02  0.000E+00  0.000E+00  0.000E+00  1.03987E+03  2.288E+00  5.529E+01  5.593E-01  8.011E-01
   1   13    8     7     2    1.4866E+02  1.8493E+00   1.4681E+02  0.000E+00  0.000E+00  0.000E+00  1.03478E+03  2.279E+00  5.526E+01  6.148E-01  1.003E+00
   1   13    7     7     3    1.4681E+02  1.4902E+00   1.4532E+02  0.000E+00  0.000E+00  0.000E+00  1.02969E+03  2.270E+00  5.522E+01  5.584E-01  8.895E-01
   1   13    6     8     1    1.5414E+02  8.4225E-01   1.5330E+02  0.000E+00  0.000E+00  0.000E+00  1.02472E+03  2.843E+00  4.122E+01  4.201E-01  6.684E-01
   1   13    5     8     2    1.5330E+02  1.1206E-01   1.5319E+02  0.000E+00  0.000E+00  0.000E+00  1.01846E+03  2.840E+00  4.117E+01  4.196E-01  8.903E-02
   1   13    4     8     3    1.5319E+02 -2.6403E+00   1.5583E+02  0.000E+00  0.000E+00  0.000E+00  1.01222E+03  2.848E+00  4.130E+01  4.209E+00 -2.091E-01
   1   13    3     8     4    1.5583E+02 -3.7282E+00   1.5956E+02  0.000E+00  0.000E+00  0.000E+00  1.00600E+03  2.870E+00  4.162E+01  4.241E+00 -2.930E-01
   1   13    2     8     5    1.5956E+02 -2.5936E+00   1.6215E+02  0.000E+00  0.000E+00  0.000E+00  9.99767E+02  2.892E+00  4.193E+01  4.273E+00 -2.023E-01
   1   13    1     8     6    1.6215E+02 -1.9794E+00   1.6413E+02  0.000E+00  0.000E+00  0.000E+00  9.94782E+02  2.907E+00  4.215E+01  2.577E+00 -2.560E-01
   1    8    6     9     1    5.2339E+01  0.0000E+00   5.2339E+01  0.000E+00  0.000E+00  0.000E+00  1.08487E+03  6.117E+00  4.000E+00  0.000E+00  3.039E+00
   1    8    5     9     2    5.2339E+01  0.0000E+00   5.2339E+01  0.000E+00  0.000E+00  0.000E+00  1.08437E+03  6.117E+00  4.000E+00  0.000E+00  3.039E+00





UNSATURATED ZONE PACKAGE VOLUMETRIC BUDGET FOR  TIME STEP    30 STRESS PERIOD   28
  ------------------------------------------------------------------------------



     CUMULATIVE VOLUMES      L**3       RATES FOR THIS TIME STEP      L**3/T
     ------------------                 ------------------------

           IN:                                      IN:
           ---                                      ---
        INFILTRATION =    60254195.5640          INFILTRATION =           0.8475

          OUT:                                     OUT:
          ----                                     ----
              UZF ET =    58227153.0726                UZF ET =           0.7500
        UZF RECHARGE =       73224.0000          UZF RECHARGE =       0.0000E+00

            IN - OUT =     1953818.4914              IN - OUT =       9.7500E-02

          STORAGE:                                 STORAGE:
          --------                                 --------
      STORAGE CHANGE =     1953818.7689        STORAGE CHANGE =       9.7500E-02

 PERCENT DISCREPANCY IS DIFFERENCE BETWEEN IN-OUT MINUS CHANGE IN STORAGE
 DIVIDED BY THE AVERAGE OF IN AND OUT TIMES 100

 PERCENT DISCREPANCY =           0.00     PERCENT DISCREPANCY =           0.00






1
  VOLUMETRIC BUDGET FOR ENTIRE MODEL AT END OF TIME STEP   30, STRESS PERIOD  28
  ------------------------------------------------------------------------------

     CUMULATIVE VOLUMES      L**3       RATES FOR THIS TIME STEP      L**3/T
     ------------------                 ------------------------

           IN:                                      IN:
           ---                                      ---
             STORAGE     =    25412750.0000               STORAGE     =           0.1399
       CONSTANT HEAD     =           0.0000         CONSTANT HEAD     =           0.0000
     HEAD DEP BOUNDS     =    20338338.0000       HEAD DEP BOUNDS     =           0.2863
      STREAM LEAKAGE     =   830457280.0000        STREAM LEAKAGE     =          12.3287
        UZF RECHARGE     =       73223.9531          UZF RECHARGE     =           0.0000
               GW ET     =           0.0000                 GW ET     =           0.0000
     SURFACE LEAKAGE     =           0.0000       SURFACE LEAKAGE     =           0.0000

                TOTAL IN =   876281600.0000                  TOTAL IN =          12.7549

          OUT:                                     OUT:
          ----                                     ----
             STORAGE     =    68208224.0000               STORAGE     =           1.4163
       CONSTANT HEAD     =           0.0000         CONSTANT HEAD     =           0.0000
     HEAD DEP BOUNDS     =    20399356.0000       HEAD DEP BOUNDS     =           0.2869
      STREAM LEAKAGE     =   787685760.0000        STREAM LEAKAGE     =          11.0520
        UZF RECHARGE     =           0.0000          UZF RECHARGE     =           0.0000
               GW ET     =           0.0000                 GW ET     =           0.0000
     SURFACE LEAKAGE     =           0.0000       SURFACE LEAKAGE     =           0.0000

               TOTAL OUT =   876293376.0000                 TOTAL OUT =          12.7552

                IN - OUT =      -11776.0000                  IN - OUT =      -3.6049E-04

     PERCENT DISCREPANCY =          -0.00         PERCENT DISCREPANCY =          -0.00






         TIME SUMMARY AT END OF TIME STEP   30 IN STRESS PERIOD   28
                    SECONDS     MINUTES      HOURS       DAYS        YEARS
                    -----------------------------------------------------------
   TIME STEP LENGTH  87667.      1461.1      24.352      1.0147     2.77799E-03
 STRESS PERIOD TIME 2.63000E+06  43833.      730.56      30.440     8.33397E-02
         TOTAL TIME 7.10967E+07 1.18494E+06  19749.      822.88      2.2529    
1
1
                            STRESS PERIOD NO.   29, LENGTH =   2630000.    
                            -----------------------------------------------

                              NUMBER OF TIME STEPS =    30

                               MULTIPLIER FOR DELT =     1.000

                            INITIAL TIME STEP SIZE =   87666.66    

 REUSING NON-PARAMETER GHB CELLS FROM LAST STRESS PERIOD

      2 GHB CELLS

 REUSING STREAM SEGMENT DATA FROM LAST STRESS PERIOD



            AREAL INFILTRATION RATE
 READING ON UNIT   19 WITH FORMAT: (FREE)              

            1           2           3           4           5           6           7           8           9          10
 ........................................................................................................................
   1   1.0000E-10  2.0000E-10   0.000       0.000       0.000       0.000       0.000       0.000       0.000       0.000    
   2   2.0000E-10  1.0000E-10  2.0000E-10   0.000       0.000      8.0000E-10  8.0000E-10  5.0000E-10   0.000       0.000    
   3    0.000      5.0000E-10  1.0000E-10  1.0000E-10  8.0000E-10  8.0000E-10  5.0000E-10  5.0000E-10   0.000       0.000    
   4   8.0000E-10  5.0000E-10  1.0000E-10  1.0000E-10  1.0000E-10  1.0000E-10  1.0000E-10  1.0000E-10  2.0000E-10   0.000    
   5   8.0000E-10  5.0000E-10  1.0000E-10  1.0000E-10  1.0000E-10  1.0000E-10  1.0000E-10  1.0000E-10  1.0000E-10  1.0000E-10
   6   8.0000E-10  5.0000E-10  5.0000E-10  2.0000E-10  2.0000E-10  1.0000E-10  1.0000E-10  1.0000E-10  1.0000E-10  5.0000E-10
   7   8.0000E-10  5.0000E-10  5.0000E-10  2.0000E-10  2.0000E-10  1.0000E-10  1.0000E-10  2.0000E-10  2.0000E-10   0.000    
   8    0.000      5.0000E-10  5.0000E-10  2.0000E-10  2.0000E-10  1.0000E-10  1.0000E-10  2.0000E-10  5.0000E-10   0.000    
   9    0.000      5.0000E-10  5.0000E-10  2.0000E-10  2.0000E-10  1.0000E-10  1.0000E-10  2.0000E-10  5.0000E-10   0.000    
  10    0.000      5.0000E-10  5.0000E-10  2.0000E-10  2.0000E-10  1.0000E-10  1.0000E-10  2.0000E-10  5.0000E-10  8.0000E-10
  11    0.000      1.0000E-10  1.0000E-10  1.0000E-10  1.0000E-10  1.0000E-10  1.0000E-10  2.0000E-10  5.0000E-10   0.000    
  12   1.0000E-10  1.0000E-10  1.0000E-10  1.0000E-10  1.0000E-10  1.0000E-10  1.0000E-10  1.0000E-10  2.0000E-10   0.000    
  13   1.0000E-10  1.0000E-10  2.0000E-10  2.0000E-10  2.0000E-10  2.0000E-10  2.0000E-10  1.0000E-10  1.0000E-10   0.000    
  14    0.000      2.0000E-10  5.0000E-10  5.0000E-10  5.0000E-10  5.0000E-10  5.0000E-10  2.0000E-10  1.0000E-10   0.000    
  15    0.000       0.000      8.0000E-10  8.0000E-10  8.0000E-10  8.0000E-10   0.000       0.000       0.000       0.000    

                  ET RATE =  2.500000E-08

 USING ET EXTINCTION DEPTH FROM PREVIOUS STRESS PERIOD. CURRENT PERIOD IS:      29

 USING EXTINCTION WATER CONTENT FROM PREVIOUS STRESS PERIOD. CURRENT PERIOD IS:      29

 USING AIR ENTRY PRESSURE FROM PREVIOUS STRESS PERIOD. CURRENT PERIOD IS:      29

 USING ROOT PRESSURE HEAD FROM PREVIOUS STRESS PERIOD. CURRENT PERIOD IS:      29

 USING ROOT ACTIVITY FROM PREVIOUS STRESS PERIOD. CURRENT PERIOD IS:      29
 
 SOLVING FOR HEAD 
                                                   Max.-Head-Change                         Max.-Flux-Residual
  Residual-Control   Outer-Iter.   Inner-Iter.     Column Row Layer    Maximum-Head-Change  Column Row Layer    Maximum-Flux-Residual          L2-NORM 
          0                 1           2             2    2     1       0.3959273507E-02       2    2    1         0.2064841539E+00      0.3801368067E+00
          0                 2           2             2    2     1      -0.3851300015E-03       2    2    1        -0.2064845879E-01      0.3801371144E-01
          0                 3           1             2    2     1       0.2622591908E-04       2    2    1         0.1445392321E-02      0.2660960360E-02

    ------------------------------------------------
       NWT REQUIRED            3 OUTER ITERATIONS 
       AND A TOTAL OF          5 INNER ITERATIONS.
    ------------------------------------------------

 NO OUTPUT CONTROL FOR STRESS PERIOD   29   TIME STEP    1
 
 SOLVING FOR HEAD 
                                                   Max.-Head-Change                         Max.-Flux-Residual
  Residual-Control   Outer-Iter.   Inner-Iter.     Column Row Layer    Maximum-Head-Change  Column Row Layer    Maximum-Flux-Residual          L2-NORM 
          0                 1           2             1    1     1       0.1668484525E-02       1    1    1         0.8654097727E-01      0.1796988248E+00
          0                 2           2             1    1     1      -0.1622980661E-03       1    1    1        -0.8654099114E-02      0.1796988354E-01
          0                 3           1             1    1     1       0.1105189627E-04       1    1    1         0.6057871896E-03      0.1257900607E-02

    ------------------------------------------------
       NWT REQUIRED            3 OUTER ITERATIONS 
       AND A TOTAL OF          5 INNER ITERATIONS.
    ------------------------------------------------

 NO OUTPUT CONTROL FOR STRESS PERIOD   29   TIME STEP    2
 
 SOLVING FOR HEAD 
                                                   Max.-Head-Change                         Max.-Flux-Residual
  Residual-Control   Outer-Iter.   Inner-Iter.     Column Row Layer    Maximum-Head-Change  Column Row Layer    Maximum-Flux-Residual          L2-NORM 
          0                 1           2             2    1     1       0.1611523859E-02       2    1    1         0.8370579997E-01      0.1780847018E+00
          0                 2           2             2    1     1      -0.1567574439E-03       2    1    1        -0.8370587725E-02      0.1780847204E-01
          0                 3           1             2    1     1       0.1067459860E-04       2    1    1         0.5859413309E-03      0.1246592058E-02

    ------------------------------------------------
       NWT REQUIRED            3 OUTER ITERATIONS 
       AND A TOTAL OF          5 INNER ITERATIONS.
    ------------------------------------------------

 NO OUTPUT CONTROL FOR STRESS PERIOD   29   TIME STEP    3
 
 SOLVING FOR HEAD 
                                                   Max.-Head-Change                         Max.-Flux-Residual
  Residual-Control   Outer-Iter.   Inner-Iter.     Column Row Layer    Maximum-Head-Change  Column Row Layer    Maximum-Flux-Residual          L2-NORM 
          0                 1           2             2    1     1       0.1608921521E-02       2    1    1         0.8356985100E-01      0.1743336079E+00
          0                 2           2             2    1     1      -0.1565043059E-03       2    1    1        -0.8356992766E-02      0.1743336256E-01
          0                 3           1             2    1     1       0.1065736050E-04       2    1    1         0.5849896662E-03      0.1220334890E-02

    ------------------------------------------------
       NWT REQUIRED            3 OUTER ITERATIONS 
       AND A TOTAL OF          5 INNER ITERATIONS.
    ------------------------------------------------

 NO OUTPUT CONTROL FOR STRESS PERIOD   29   TIME STEP    4
 
 SOLVING FOR HEAD 
                                                   Max.-Head-Change                         Max.-Flux-Residual
  Residual-Control   Outer-Iter.   Inner-Iter.     Column Row Layer    Maximum-Head-Change  Column Row Layer    Maximum-Flux-Residual          L2-NORM 
          0                 1           2             2    1     1       0.1606338604E-02       2    1    1         0.8343492252E-01      0.1708627962E+00
          0                 2           2             2    1     1      -0.1562530581E-03       2    1    1        -0.8343499883E-02      0.1708628348E-01
          0                 3           1             2    1     1       0.1064025139E-04       2    1    1         0.5840451622E-03      0.1196046645E-02

    ------------------------------------------------
       NWT REQUIRED            3 OUTER ITERATIONS 
       AND A TOTAL OF          5 INNER ITERATIONS.
    ------------------------------------------------

 NO OUTPUT CONTROL FOR STRESS PERIOD   29   TIME STEP    5
 
 SOLVING FOR HEAD 
                                                   Max.-Head-Change                         Max.-Flux-Residual
  Residual-Control   Outer-Iter.   Inner-Iter.     Column Row Layer    Maximum-Head-Change  Column Row Layer    Maximum-Flux-Residual          L2-NORM 
          0                 1           2             2    1     1       0.1603774851E-02       2    1    1         0.8330100103E-01      0.1676555842E+00
          0                 2           2             2    1     1      -0.1560036738E-03       2    1    1        -0.8330107655E-02      0.1676556139E-01
          0                 3           1             2    1     1       0.1062326938E-04       2    1    1         0.5831077138E-03      0.1173589789E-02

    ------------------------------------------------
       NWT REQUIRED            3 OUTER ITERATIONS 
       AND A TOTAL OF          5 INNER ITERATIONS.
    ------------------------------------------------

 NO OUTPUT CONTROL FOR STRESS PERIOD   29   TIME STEP    6
 
 SOLVING FOR HEAD 
                                                   Max.-Head-Change                         Max.-Flux-Residual
  Residual-Control   Outer-Iter.   Inner-Iter.     Column Row Layer    Maximum-Head-Change  Column Row Layer    Maximum-Flux-Residual          L2-NORM 
          0                 1           2             2    1     1       0.1601230010E-02       2    1    1         0.8316807320E-01      0.1646810653E+00
          0                 2           2             2    1     1      -0.1557561289E-03       2    1    1        -0.8316814806E-02      0.1646810877E-01
          0                 3           1             2    1     1       0.1060641232E-04       2    1    1         0.5821772020E-03      0.1152767269E-02

    ------------------------------------------------
       NWT REQUIRED            3 OUTER ITERATIONS 
       AND A TOTAL OF          5 INNER ITERATIONS.
    ------------------------------------------------

 NO OUTPUT CONTROL FOR STRESS PERIOD   29   TIME STEP    7
 
 SOLVING FOR HEAD 
                                                   Max.-Head-Change                         Max.-Flux-Residual
  Residual-Control   Outer-Iter.   Inner-Iter.     Column Row Layer    Maximum-Head-Change  Column Row Layer    Maximum-Flux-Residual          L2-NORM 
          0                 1           2             2    1     1       0.1598703831E-02       2    1    1         0.8303612590E-01      0.1619238139E+00
          0                 2           2             2    1     1      -0.1555104003E-03       2    1    1        -0.8303620034E-02      0.1619238529E-01
          0                 3           1             2    1     1       0.1058967952E-04       2    1    1         0.5812535804E-03      0.1133467561E-02

    ------------------------------------------------
       NWT REQUIRED            3 OUTER ITERATIONS 
       AND A TOTAL OF          5 INNER ITERATIONS.
    ------------------------------------------------

 NO OUTPUT CONTROL FOR STRESS PERIOD   29   TIME STEP    8
 
 SOLVING FOR HEAD 
                                                   Max.-Head-Change                         Max.-Flux-Residual
  Residual-Control   Outer-Iter.   Inner-Iter.     Column Row Layer    Maximum-Head-Change  Column Row Layer    Maximum-Flux-Residual          L2-NORM 
          0                 1           2             2    1     1       0.1596196071E-02       2    1    1         0.8290514625E-01      0.1593603570E+00
          0                 2           2             2    1     1      -0.1552664626E-03       2    1    1        -0.8290521998E-02      0.1593603685E-01
          0                 3           1             2    1     1       0.1057306837E-04       2    1    1         0.5803367282E-03      0.1115522983E-02

    ------------------------------------------------
       NWT REQUIRED            3 OUTER ITERATIONS 
       AND A TOTAL OF          5 INNER ITERATIONS.
    ------------------------------------------------

 NO OUTPUT CONTROL FOR STRESS PERIOD   29   TIME STEP    9
 
 SOLVING FOR HEAD 
                                                   Max.-Head-Change                         Max.-Flux-Residual
  Residual-Control   Outer-Iter.   Inner-Iter.     Column Row Layer    Maximum-Head-Change  Column Row Layer    Maximum-Flux-Residual          L2-NORM 
          0                 1           2             2    1     1       0.1593706489E-02       2    1    1         0.8277512158E-01      0.1569755532E+00
          0                 2           2             2    1     1      -0.1550242933E-03       2    1    1        -0.8277519484E-02      0.1569756908E-01
          0                 3           1             2    1     1       0.1055657698E-04       2    1    1         0.5794265446E-03      0.1098878936E-02

    ------------------------------------------------
       NWT REQUIRED            3 OUTER ITERATIONS 
       AND A TOTAL OF          5 INNER ITERATIONS.
    ------------------------------------------------

 NO OUTPUT CONTROL FOR STRESS PERIOD   29   TIME STEP   10
 
 SOLVING FOR HEAD 
                                                   Max.-Head-Change                         Max.-Flux-Residual
  Residual-Control   Outer-Iter.   Inner-Iter.     Column Row Layer    Maximum-Head-Change  Column Row Layer    Maximum-Flux-Residual          L2-NORM 
          0                 1           2             2    1     1       0.1591213264E-02       2    1    1         0.8264491244E-01      0.1547620570E+00
          0                 2           2             2    1     1      -0.1547817694E-03       2    1    1        -0.8264498497E-02      0.1547621057E-01
          0                 3           1             2    1     1       0.1054006239E-04       2    1    1         0.5785150822E-03      0.1083335159E-02

    ------------------------------------------------
       NWT REQUIRED            3 OUTER ITERATIONS 
       AND A TOTAL OF          5 INNER ITERATIONS.
    ------------------------------------------------

 NO OUTPUT CONTROL FOR STRESS PERIOD   29   TIME STEP   11
 
 SOLVING FOR HEAD 
                                                   Max.-Head-Change                         Max.-Flux-Residual
  Residual-Control   Outer-Iter.   Inner-Iter.     Column Row Layer    Maximum-Head-Change  Column Row Layer    Maximum-Flux-Residual          L2-NORM 
          0                 1           2             2    1     1       0.1588759480E-02       2    1    1         0.8251676836E-01      0.1526924526E+00
          0                 2           2             2    1     1      -0.1545430826E-03       2    1    1        -0.8251684033E-02      0.1526924415E-01
          0                 3           1             2    1     1       0.1052380909E-04       2    1    1         0.5776180807E-03      0.1068847245E-02

    ------------------------------------------------
       NWT REQUIRED            3 OUTER ITERATIONS 
       AND A TOTAL OF          5 INNER ITERATIONS.
    ------------------------------------------------

 NO OUTPUT CONTROL FOR STRESS PERIOD   29   TIME STEP   12
 
 SOLVING FOR HEAD 
                                                   Max.-Head-Change                         Max.-Flux-Residual
  Residual-Control   Outer-Iter.   Inner-Iter.     Column Row Layer    Maximum-Head-Change  Column Row Layer    Maximum-Flux-Residual          L2-NORM 
          0                 1           2             2    1     1       0.1586323274E-02       2    1    1         0.8238954233E-01      0.1507648957E+00
          0                 2           2             2    1     1      -0.1543061054E-03       2    1    1        -0.8238961393E-02      0.1507649222E-01
          0                 3           1             2    1     1       0.1050767176E-04       2    1    1         0.5767274813E-03      0.1055354024E-02

    ------------------------------------------------
       NWT REQUIRED            3 OUTER ITERATIONS 
       AND A TOTAL OF          5 INNER ITERATIONS.
    ------------------------------------------------

 NO OUTPUT CONTROL FOR STRESS PERIOD   29   TIME STEP   13
 
 SOLVING FOR HEAD 
                                                   Max.-Head-Change                         Max.-Flux-Residual
  Residual-Control   Outer-Iter.   Inner-Iter.     Column Row Layer    Maximum-Head-Change  Column Row Layer    Maximum-Flux-Residual          L2-NORM 
          0                 1           2             2    1     1       0.1583904317E-02       2    1    1         0.8226322762E-01      0.1489585811E+00
          0                 2           2             2    1     1      -0.1540708059E-03       2    1    1        -0.8226329859E-02      0.1489586096E-01
          0                 3           1             2    1     1       0.1049164874E-04       2    1    1         0.5758432775E-03      0.1042711681E-02

    ------------------------------------------------
       NWT REQUIRED            3 OUTER ITERATIONS 
       AND A TOTAL OF          5 INNER ITERATIONS.
    ------------------------------------------------

 NO OUTPUT CONTROL FOR STRESS PERIOD   29   TIME STEP   14
 
 SOLVING FOR HEAD 
                                                   Max.-Head-Change                         Max.-Flux-Residual
  Residual-Control   Outer-Iter.   Inner-Iter.     Column Row Layer    Maximum-Head-Change  Column Row Layer    Maximum-Flux-Residual          L2-NORM 
          0                 1           2             2    1     1       0.1581502488E-02       2    1    1         0.8213780731E-01      0.1472769294E+00
          0                 2           2             2    1     1      -0.1538371725E-03       2    1    1        -0.8213787792E-02      0.1472769299E-01
          0                 3           1             2    1     1       0.1047573886E-04       2    1    1         0.5749653172E-03      0.1030937697E-02

    ------------------------------------------------
       NWT REQUIRED            3 OUTER ITERATIONS 
       AND A TOTAL OF          5 INNER ITERATIONS.
    ------------------------------------------------

 NO OUTPUT CONTROL FOR STRESS PERIOD   29   TIME STEP   15
 
 SOLVING FOR HEAD 
                                                   Max.-Head-Change                         Max.-Flux-Residual
  Residual-Control   Outer-Iter.   Inner-Iter.     Column Row Layer    Maximum-Head-Change  Column Row Layer    Maximum-Flux-Residual          L2-NORM 
          0                 1           2             2    1     1       0.1579117467E-02       2    1    1         0.8201327504E-01      0.1456954711E+00
          0                 2           2             2    1     1      -0.1536051742E-03       2    1    1        -0.8201334508E-02      0.1456955208E-01
          0                 3           1             2    1     1       0.1045994068E-04       2    1    1         0.5740935826E-03      0.1019870376E-02

    ------------------------------------------------
       NWT REQUIRED            3 OUTER ITERATIONS 
       AND A TOTAL OF          5 INNER ITERATIONS.
    ------------------------------------------------

 NO OUTPUT CONTROL FOR STRESS PERIOD   29   TIME STEP   16
 
 SOLVING FOR HEAD 
                                                   Max.-Head-Change                         Max.-Flux-Residual
  Residual-Control   Outer-Iter.   Inner-Iter.     Column Row Layer    Maximum-Head-Change  Column Row Layer    Maximum-Flux-Residual          L2-NORM 
          0                 1           2             2    1     1       0.1576727451E-02       2    1    1         0.8188848703E-01      0.1442134980E+00
          0                 2           2             2    1     1      -0.1533726901E-03       2    1    1        -0.8188855630E-02      0.1442135514E-01
          0                 3           1             2    1     1       0.1044410984E-04       2    1    1         0.5732200858E-03      0.1009500429E-02

    ------------------------------------------------
       NWT REQUIRED            3 OUTER ITERATIONS 
       AND A TOTAL OF          5 INNER ITERATIONS.
    ------------------------------------------------

 NO OUTPUT CONTROL FOR STRESS PERIOD   29   TIME STEP   17
 
 SOLVING FOR HEAD 
                                                   Max.-Head-Change                         Max.-Flux-Residual
  Residual-Control   Outer-Iter.   Inner-Iter.     Column Row Layer    Maximum-Head-Change  Column Row Layer    Maximum-Flux-Residual          L2-NORM 
          0                 1           2             2    1     1       0.1574375657E-02       2    1    1         0.8176569456E-01      0.1428205576E+00
          0                 2           2             2    1     1      -0.1531439237E-03       2    1    1        -0.8176576335E-02      0.1428205746E-01
          0                 3           1             2    1     1       0.1042853153E-04       2    1    1         0.5723605275E-03      0.9997449102E-03

    ------------------------------------------------
       NWT REQUIRED            3 OUTER ITERATIONS 
       AND A TOTAL OF          5 INNER ITERATIONS.
    ------------------------------------------------

 NO OUTPUT CONTROL FOR STRESS PERIOD   29   TIME STEP   18
 
 SOLVING FOR HEAD 
                                                   Max.-Head-Change                         Max.-Flux-Residual
  Residual-Control   Outer-Iter.   Inner-Iter.     Column Row Layer    Maximum-Head-Change  Column Row Layer    Maximum-Flux-Residual          L2-NORM 
          0                 1           2             2    1     1       0.1572040134E-02       2    1    1         0.8164375655E-01      0.1415137539E+00
          0                 2           2             2    1     1      -0.1529167406E-03       2    1    1        -0.8164382512E-02      0.1415137634E-01
          0                 3           1             2    1     1       0.1041306115E-04       2    1    1         0.5715069518E-03      0.9905971033E-03

    ------------------------------------------------
       NWT REQUIRED            3 OUTER ITERATIONS 
       AND A TOTAL OF          5 INNER ITERATIONS.
    ------------------------------------------------

 NO OUTPUT CONTROL FOR STRESS PERIOD   29   TIME STEP   19
 
 SOLVING FOR HEAD 
                                                   Max.-Head-Change                         Max.-Flux-Residual
  Residual-Control   Outer-Iter.   Inner-Iter.     Column Row Layer    Maximum-Head-Change  Column Row Layer    Maximum-Flux-Residual          L2-NORM 
          0                 1           2             2    1     1       0.1569720704E-02       2    1    1         0.8152266218E-01      0.1402822465E+00
          0                 2           2             2    1     1      -0.1526911221E-03       2    1    1        -0.8152273005E-02      0.1402822807E-01
          0                 3           1             2    1     1       0.1039769750E-04       2    1    1         0.5706592895E-03      0.9820349746E-03

    ------------------------------------------------
       NWT REQUIRED            3 OUTER ITERATIONS 
       AND A TOTAL OF          5 INNER ITERATIONS.
    ------------------------------------------------

 NO OUTPUT CONTROL FOR STRESS PERIOD   29   TIME STEP   20
 
 SOLVING FOR HEAD 
                                                   Max.-Head-Change                         Max.-Flux-Residual
  Residual-Control   Outer-Iter.   Inner-Iter.     Column Row Layer    Maximum-Head-Change  Column Row Layer    Maximum-Flux-Residual          L2-NORM 
          0                 1           2             2    1     1       0.1567395445E-02       2    1    1         0.8140127479E-01      0.1391216397E+00
          0                 2           2             2    1     1      -0.1524649372E-03       2    1    1        -0.8140134222E-02      0.1391216714E-01
          0                 3           1             2    1     1       0.1038229504E-04       2    1    1         0.5698095713E-03      0.9738518611E-03

    ------------------------------------------------
       NWT REQUIRED            3 OUTER ITERATIONS 
       AND A TOTAL OF          5 INNER ITERATIONS.
    ------------------------------------------------

 NO OUTPUT CONTROL FOR STRESS PERIOD   29   TIME STEP   21
 
 SOLVING FOR HEAD 
                                                   Max.-Head-Change                         Max.-Flux-Residual
  Residual-Control   Outer-Iter.   Inner-Iter.     Column Row Layer    Maximum-Head-Change  Column Row Layer    Maximum-Flux-Residual          L2-NORM 
          0                 1           2             2    1     1       0.1565107594E-02       2    1    1         0.8128184009E-01      0.1380222635E+00
          0                 2           2             2    1     1      -0.1522423910E-03       2    1    1        -0.8128190706E-02      0.1380222778E-01
          0                 3           1             2    1     1       0.1036714085E-04       2    1    1         0.5689735333E-03      0.9661559688E-03

    ------------------------------------------------
       NWT REQUIRED            3 OUTER ITERATIONS 
       AND A TOTAL OF          5 INNER ITERATIONS.
    ------------------------------------------------

 NO OUTPUT CONTROL FOR STRESS PERIOD   29   TIME STEP   22
 
 SOLVING FOR HEAD 
                                                   Max.-Head-Change                         Max.-Flux-Residual
  Residual-Control   Outer-Iter.   Inner-Iter.     Column Row Layer    Maximum-Head-Change  Column Row Layer    Maximum-Flux-Residual          L2-NORM 
          0                 1           2             2    1     1       0.1562835209E-02       2    1    1         0.8116321748E-01      0.1369825821E+00
          0                 2           2             2    1     1      -0.1520213491E-03       2    1    1        -0.8116328392E-02      0.1369826108E-01
          0                 3           1             2    1     1       0.1035208843E-04       2    1    1         0.5681431675E-03      0.9588790483E-03

    ------------------------------------------------
       NWT REQUIRED            3 OUTER ITERATIONS 
       AND A TOTAL OF          5 INNER ITERATIONS.
    ------------------------------------------------

 NO OUTPUT CONTROL FOR STRESS PERIOD   29   TIME STEP   23
 
 SOLVING FOR HEAD 
                                                   Max.-Head-Change                         Max.-Flux-Residual
  Residual-Control   Outer-Iter.   Inner-Iter.     Column Row Layer    Maximum-Head-Change  Column Row Layer    Maximum-Flux-Residual          L2-NORM 
          0                 1           2             2    1     1       0.1560556403E-02       2    1    1         0.8104426919E-01      0.1360035385E+00
          0                 2           2             2    1     1      -0.1517996828E-03       2    1    1        -0.8104433515E-02      0.1360035453E-01
          0                 3           1             2    1     1       0.1033699412E-04       2    1    1         0.5673105267E-03      0.9520251612E-03

    ------------------------------------------------
       NWT REQUIRED            3 OUTER ITERATIONS 
       AND A TOTAL OF          5 INNER ITERATIONS.
    ------------------------------------------------

 NO OUTPUT CONTROL FOR STRESS PERIOD   29   TIME STEP   24
 
 SOLVING FOR HEAD 
                                                   Max.-Head-Change                         Max.-Flux-Residual
  Residual-Control   Outer-Iter.   Inner-Iter.     Column Row Layer    Maximum-Head-Change  Column Row Layer    Maximum-Flux-Residual          L2-NORM 
          0                 1           2             2    1     1       0.1558314527E-02       2    1    1         0.8092724316E-01      0.1350717947E+00
          0                 2           2             2    1     1      -0.1515816085E-03       2    1    1        -0.8092730868E-02      0.1350718148E-01
          0                 3           1             2    1     1       0.1032214382E-04       2    1    1         0.5664913290E-03      0.9455027407E-03

    ------------------------------------------------
       NWT REQUIRED            3 OUTER ITERATIONS 
       AND A TOTAL OF          5 INNER ITERATIONS.
    ------------------------------------------------

 NO OUTPUT CONTROL FOR STRESS PERIOD   29   TIME STEP   25
 
 SOLVING FOR HEAD 
                                                   Max.-Head-Change                         Max.-Flux-Residual
  Residual-Control   Outer-Iter.   Inner-Iter.     Column Row Layer    Maximum-Head-Change  Column Row Layer    Maximum-Flux-Residual          L2-NORM 
          0                 1           2             2    1     1       0.1556065850E-02       2    1    1         0.8080987661E-01      0.1341910146E+00
          0                 2           2             2    1     1      -0.1513628732E-03       2    1    1        -0.8080994173E-02      0.1341910112E-01
          0                 3           1             2    1     1       0.1030724902E-04       2    1    1         0.5656697769E-03      0.9393371685E-03

    ------------------------------------------------
       NWT REQUIRED            3 OUTER ITERATIONS 
       AND A TOTAL OF          5 INNER ITERATIONS.
    ------------------------------------------------

 NO OUTPUT CONTROL FOR STRESS PERIOD   29   TIME STEP   26
 
 SOLVING FOR HEAD 
                                                   Max.-Head-Change                         Max.-Flux-Residual
  Residual-Control   Outer-Iter.   Inner-Iter.     Column Row Layer    Maximum-Head-Change  Column Row Layer    Maximum-Flux-Residual          L2-NORM 
          0                 1           2             2    1     1       0.1553853632E-02       2    1    1         0.8069441280E-01      0.1333539422E+00
          0                 2           2             2    1     1      -0.1511476836E-03       2    1    1        -0.8069447740E-02      0.1333539656E-01
          0                 3           1             2    1     1       0.1029259516E-04       2    1    1         0.5648615084E-03      0.9334791098E-03

    ------------------------------------------------
       NWT REQUIRED            3 OUTER ITERATIONS 
       AND A TOTAL OF          5 INNER ITERATIONS.
    ------------------------------------------------

 NO OUTPUT CONTROL FOR STRESS PERIOD   29   TIME STEP   27
 
 SOLVING FOR HEAD 
                                                   Max.-Head-Change                         Max.-Flux-Residual
  Residual-Control   Outer-Iter.   Inner-Iter.     Column Row Layer    Maximum-Head-Change  Column Row Layer    Maximum-Flux-Residual          L2-NORM 
          0                 1           2             2    1     1       0.1551656042E-02       2    1    1         0.8057971170E-01      0.1325574871E+00
          0                 2           2             2    1     1      -0.1509339174E-03       2    1    1        -0.8057977592E-02      0.1325575202E-01
          0                 3           1             2    1     1       0.1027803881E-04       2    1    1         0.5640586030E-03      0.9279043763E-03

    ------------------------------------------------
       NWT REQUIRED            3 OUTER ITERATIONS 
       AND A TOTAL OF          5 INNER ITERATIONS.
    ------------------------------------------------

 NO OUTPUT CONTROL FOR STRESS PERIOD   29   TIME STEP   28
 
 SOLVING FOR HEAD 
                                                   Max.-Head-Change                         Max.-Flux-Residual
  Residual-Control   Outer-Iter.   Inner-Iter.     Column Row Layer    Maximum-Head-Change  Column Row Layer    Maximum-Flux-Residual          L2-NORM 
          0                 1           2             2    1     1       0.1549451132E-02       2    1    1         0.8046464120E-01      0.1318024696E+00
          0                 2           2             2    1     1      -0.1507194394E-03       2    1    1        -0.8046470496E-02      0.1318025786E-01
          0                 3           1             2    1     1       0.1026343417E-04       2    1    1         0.5632531287E-03      0.9226189371E-03

    ------------------------------------------------
       NWT REQUIRED            3 OUTER ITERATIONS 
       AND A TOTAL OF          5 INNER ITERATIONS.
    ------------------------------------------------

 NO OUTPUT CONTROL FOR STRESS PERIOD   29   TIME STEP   29
 
 SOLVING FOR HEAD 
                                                   Max.-Head-Change                         Max.-Flux-Residual
  Residual-Control   Outer-Iter.   Inner-Iter.     Column Row Layer    Maximum-Head-Change  Column Row Layer    Maximum-Flux-Residual          L2-NORM 
          0                 1           2             1    1     1       0.2404936437E-02       1    1    1         0.1248009776E+00      0.2327170866E+00
          0                 2           2             1    1     1      -0.2339348492E-03       1    1    1        -0.1248010535E-01      0.2327171121E-01
          0                 3           1             1    1     1       0.1593009498E-04       1    1    1         0.8736076779E-03      0.1629020407E-02

    ------------------------------------------------
       NWT REQUIRED            3 OUTER ITERATIONS 
       AND A TOTAL OF          5 INNER ITERATIONS.
    ------------------------------------------------

 NO OUTPUT CONTROL FOR STRESS PERIOD   29   TIME STEP   30



 STREAM LISTING     PERIOD     29   STEP       30

 LAYER ROW COL. STREAM  RCH.  FLOW INTO     FLOW TO   FLOW OUT OF   OVRLND.     DIRECT     STREAM       STREAM     STREAM     STREAM   STREAMBED  STREAMBED
                SEG.NO.  NO.  STRM. RCH.    AQUIFER    STRM. RCH.    RUNOFF     PRECIP       ET          HEAD       DEPTH      WIDTH   CONDCTNC.   GRADIENT

   1    1    1     1     1    3.7161E+01  2.9408E-01   3.6867E+01  0.000E+00  0.000E+00  0.000E+00  1.09436E+03  1.310E+00  1.516E+01  6.824E-02  1.437E+00
   1    2    2     1     2    3.6867E+01  4.5538E-01   3.6412E+01  0.000E+00  0.000E+00  0.000E+00  1.08937E+03  1.307E+00  1.511E+01  1.057E-01  1.436E+00
   1    3    3     1     3    3.6412E+01  3.8831E-01   3.6024E+01  0.000E+00  0.000E+00  0.000E+00  1.08372E+03  1.303E+00  1.504E+01  9.023E-02  1.434E+00
   1    3    4     1     4    3.6024E+01  3.5753E-01   3.5666E+01  0.000E+00  0.000E+00  0.000E+00  1.07871E+03  1.300E+00  1.498E+01  8.314E-02  1.433E+00
   1    4    5     2     1    3.3666E+01  3.4626E-01   3.3320E+01  0.000E+00  0.000E+00  0.000E+00  1.07337E+03  1.439E+00  1.200E+01  7.800E-02  1.480E+00
   1    5    6     2     2    3.3320E+01  2.6588E-01   3.3054E+01  0.000E+00  0.000E+00  0.000E+00  1.06794E+03  1.431E+00  1.200E+01  6.000E-02  1.477E+00
   1    6    6     2     3    3.3054E+01  2.6546E-01   3.2789E+01  0.000E+00  0.000E+00  0.000E+00  1.06322E+03  1.424E+00  1.200E+01  6.000E-02  1.475E+00
   1    7    6     2     4    3.2789E+01  2.6505E-01   3.2524E+01  0.000E+00  0.000E+00  0.000E+00  1.05849E+03  1.417E+00  1.200E+01  6.000E-02  1.472E+00
   1    8    6     2     5    3.2524E+01  2.6464E-01   3.2259E+01  0.000E+00  0.000E+00  0.000E+00  1.05377E+03  1.411E+00  1.200E+01  6.000E-02  1.470E+00
   1    3    5     3     1    2.0000E+00  2.8252E-01   1.7175E+00  0.000E+00  0.000E+00  0.000E+00  1.07555E+03  1.909E+00  9.636E+00  7.227E-02  1.955E+00
   1    3    6     3     2    1.7175E+00  2.4905E-01   1.4684E+00  0.000E+00  0.000E+00  0.000E+00  1.07264E+03  1.727E+00  8.909E+00  6.682E-02  1.864E+00
   1    3    7     3     3    1.4684E+00  1.9718E-01   1.2712E+00  0.000E+00  0.000E+00  0.000E+00  1.06987E+03  1.555E+00  8.218E+00  5.547E-02  1.777E+00
   1    4    8     3     4    1.2712E+00  2.2567E-01   1.0456E+00  0.000E+00  0.000E+00  0.000E+00  1.06682E+03  1.364E+00  7.455E+00  6.709E-02  1.682E+00
   1    5    8     3     5    1.0456E+00  1.5790E-01   8.8768E-01  0.000E+00  0.000E+00  0.000E+00  1.06362E+03  1.164E+00  6.655E+00  4.991E-02  1.582E+00
   1    6    8     3     6    8.8768E-01  5.5980E-02   8.3170E-01  0.000E+00  0.000E+00  0.000E+00  1.06158E+03  1.036E+00  6.145E+00  1.844E-02  1.518E+00
   1    5   10     4     1    1.0000E+01  9.0919E-02   9.9091E+00  0.000E+00  0.000E+00  0.000E+00  1.07836E+03  6.368E-01  1.000E+01  2.500E-02  1.212E+00
   1    5    9     4     2    9.9091E+00  1.8158E-01   9.7275E+00  0.000E+00  0.000E+00  0.000E+00  1.07154E+03  6.315E-01  1.000E+01  5.000E-02  1.211E+00
   1    6    8     4     3    9.7275E+00  1.2689E-01   9.6006E+00  0.000E+00  0.000E+00  0.000E+00  1.06381E+03  6.256E-01  1.000E+01  3.500E-02  1.209E+00
   1    6    8     5     1    1.0432E+01  2.2686E-01   1.0205E+01  0.000E+00  0.000E+00  0.000E+00  1.05868E+03  6.790E-01  1.542E+01  6.166E-02  1.226E+00
   1    7    7     5     2    1.0205E+01  2.7894E-01   9.9265E+00  0.000E+00  0.000E+00  0.000E+00  1.05417E+03  6.732E-01  1.519E+01  7.594E-02  1.224E+00
   1    8    7     5     3    9.9265E+00  1.9221E-01   9.7343E+00  0.000E+00  0.000E+00  0.000E+00  1.04992E+03  6.676E-01  1.497E+01  5.241E-02  1.223E+00
   1    8    6     5     4    9.7343E+00  1.3577E-01   9.5985E+00  0.000E+00  0.000E+00  0.000E+00  1.04691E+03  6.637E-01  1.482E+01  3.706E-02  1.221E+00
   1    9    6     6     1    9.5985E+00  2.2097E-01   9.3776E+00  0.000E+00  0.000E+00  0.000E+00  1.04341E+03  6.828E-01  1.200E+01  6.000E-02  1.228E+00
   1   10    7     6     2    9.3776E+00  2.2039E-01   9.1572E+00  0.000E+00  0.000E+00  0.000E+00  1.03885E+03  6.732E-01  1.200E+01  6.000E-02  1.224E+00
   1   11    7     6     3    9.1572E+00  2.1981E-01   8.9374E+00  0.000E+00  0.000E+00  0.000E+00  1.03430E+03  6.636E-01  1.200E+01  6.000E-02  1.221E+00
   1   12    7     6     4    8.9374E+00  2.1923E-01   8.7181E+00  0.000E+00  0.000E+00  0.000E+00  1.02974E+03  6.539E-01  1.200E+01  6.000E-02  1.218E+00
   1   13    7     6     5    8.7181E+00 -1.1048E-01   8.8286E+00  0.000E+00  0.000E+00  0.000E+00  1.02656E+03  6.514E-01  1.200E+01  2.400E-01 -1.534E-01
   1   14    9     7     1    1.5000E+02  1.3443E+00   1.4866E+02  0.000E+00  0.000E+00  0.000E+00  1.03987E+03  2.288E+00  5.529E+01  5.593E-01  8.012E-01
   1   13    8     7     2    1.4866E+02  1.8495E+00   1.4681E+02  0.000E+00  0.000E+00  0.000E+00  1.03478E+03  2.279E+00  5.526E+01  6.148E-01  1.003E+00
   1   13    7     7     3    1.4681E+02  1.4904E+00   1.4532E+02  0.000E+00  0.000E+00  0.000E+00  1.02969E+03  2.270E+00  5.522E+01  5.584E-01  8.896E-01
   1   13    6     8     1    1.5414E+02  8.4239E-01   1.5330E+02  0.000E+00  0.000E+00  0.000E+00  1.02472E+03  2.843E+00  4.122E+01  4.201E-01  6.685E-01
   1   13    5     8     2    1.5330E+02  1.1218E-01   1.5319E+02  0.000E+00  0.000E+00  0.000E+00  1.01846E+03  2.840E+00  4.117E+01  4.196E-01  8.912E-02
   1   13    4     8     3    1.5319E+02 -2.6399E+00   1.5583E+02  0.000E+00  0.000E+00  0.000E+00  1.01222E+03  2.848E+00  4.130E+01  4.209E+00 -2.091E-01
   1   13    3     8     4    1.5583E+02 -3.7279E+00   1.5956E+02  0.000E+00  0.000E+00  0.000E+00  1.00600E+03  2.870E+00  4.162E+01  4.241E+00 -2.930E-01
   1   13    2     8     5    1.5956E+02 -2.5934E+00   1.6215E+02  0.000E+00  0.000E+00  0.000E+00  9.99767E+02  2.892E+00  4.193E+01  4.273E+00 -2.023E-01
   1   13    1     8     6    1.6215E+02 -1.9794E+00   1.6413E+02  0.000E+00  0.000E+00  0.000E+00  9.94782E+02  2.907E+00  4.215E+01  2.577E+00 -2.560E-01
   1    8    6     9     1    3.2259E+01  0.0000E+00   3.2259E+01  0.000E+00  0.000E+00  0.000E+00  1.08333E+03  4.576E+00  4.000E+00  0.000E+00  2.525E+00
   1    8    5     9     2    3.2259E+01  0.0000E+00   3.2259E+01  0.000E+00  0.000E+00  0.000E+00  1.08283E+03  4.576E+00  4.000E+00  0.000E+00  2.525E+00





UNSATURATED ZONE PACKAGE VOLUMETRIC BUDGET FOR  TIME STEP    30 STRESS PERIOD   29
  ------------------------------------------------------------------------------



     CUMULATIVE VOLUMES      L**3       RATES FOR THIS TIME STEP      L**3/T
     ------------------                 ------------------------

           IN:                                      IN:
           ---                                      ---
        INFILTRATION =    62483120.4368          INFILTRATION =           0.8475

          OUT:                                     OUT:
          ----                                     ----
              UZF ET =    61676751.3902                UZF ET =           0.8475
        UZF RECHARGE =       73224.0000          UZF RECHARGE =       0.0000E+00

            IN - OUT =      733145.0466              IN - OUT =       0.0000E+00

          STORAGE:                                 STORAGE:
          --------                                 --------
      STORAGE CHANGE =      733145.3167        STORAGE CHANGE =      -1.9919E-15

 PERCENT DISCREPANCY IS DIFFERENCE BETWEEN IN-OUT MINUS CHANGE IN STORAGE
 DIVIDED BY THE AVERAGE OF IN AND OUT TIMES 100

 PERCENT DISCREPANCY =           0.00     PERCENT DISCREPANCY =           0.00






1
  VOLUMETRIC BUDGET FOR ENTIRE MODEL AT END OF TIME STEP   30, STRESS PERIOD  29
  ------------------------------------------------------------------------------

     CUMULATIVE VOLUMES      L**3       RATES FOR THIS TIME STEP      L**3/T
     ------------------                 ------------------------

           IN:                                      IN:
           ---                                      ---
             STORAGE     =    26065050.0000               STORAGE     =           0.1332
       CONSTANT HEAD     =           0.0000         CONSTANT HEAD     =           0.0000
     HEAD DEP BOUNDS     =    21091398.0000       HEAD DEP BOUNDS     =           0.2863
      STREAM LEAKAGE     =   860396736.0000        STREAM LEAKAGE     =          11.8232
        UZF RECHARGE     =       73223.9531          UZF RECHARGE     =           0.0000
               GW ET     =           0.0000                 GW ET     =           0.0000
     SURFACE LEAKAGE     =           0.0000       SURFACE LEAKAGE     =           0.0000

                TOTAL IN =   907626368.0000                  TOTAL IN =          12.2427

          OUT:                                     OUT:
          ----                                     ----
             STORAGE     =    69733064.0000               STORAGE     =           0.9049
       CONSTANT HEAD     =           0.0000         CONSTANT HEAD     =           0.0000
     HEAD DEP BOUNDS     =    21153916.0000       HEAD DEP BOUNDS     =           0.2869
      STREAM LEAKAGE     =   816751424.0000        STREAM LEAKAGE     =          11.0511
        UZF RECHARGE     =           0.0000          UZF RECHARGE     =           0.0000
               GW ET     =           0.0000                 GW ET     =           0.0000
     SURFACE LEAKAGE     =           0.0000       SURFACE LEAKAGE     =           0.0000

               TOTAL OUT =   907638400.0000                 TOTAL OUT =          12.2429

                IN - OUT =      -12032.0000                  IN - OUT =      -2.1744E-04

     PERCENT DISCREPANCY =          -0.00         PERCENT DISCREPANCY =          -0.00






         TIME SUMMARY AT END OF TIME STEP   30 IN STRESS PERIOD   29
                    SECONDS     MINUTES      HOURS       DAYS        YEARS
                    -----------------------------------------------------------
   TIME STEP LENGTH  87667.      1461.1      24.352      1.0147     2.77799E-03
 STRESS PERIOD TIME 2.63000E+06  43833.      730.56      30.440     8.33397E-02
         TOTAL TIME 7.37266E+07 1.22878E+06  20480.      853.32      2.3363    
1
1
                            STRESS PERIOD NO.   30, LENGTH =   2630000.    
                            -----------------------------------------------

                              NUMBER OF TIME STEPS =    30

                               MULTIPLIER FOR DELT =     1.000

                            INITIAL TIME STEP SIZE =   87666.66    

 REUSING NON-PARAMETER GHB CELLS FROM LAST STRESS PERIOD

      2 GHB CELLS

 REUSING STREAM SEGMENT DATA FROM LAST STRESS PERIOD



            AREAL INFILTRATION RATE
 READING ON UNIT   19 WITH FORMAT: (FREE)              

            1           2           3           4           5           6           7           8           9          10
 ........................................................................................................................
   1   1.0000E-10  2.0000E-10   0.000       0.000       0.000       0.000       0.000       0.000       0.000       0.000    
   2   2.0000E-10  1.0000E-10  2.0000E-10   0.000       0.000      8.0000E-10  8.0000E-10  5.0000E-10   0.000       0.000    
   3    0.000      5.0000E-10  1.0000E-10  1.0000E-10  8.0000E-10  8.0000E-10  5.0000E-10  5.0000E-10   0.000       0.000    
   4   8.0000E-10  5.0000E-10  1.0000E-10  1.0000E-10  1.0000E-10  1.0000E-10  1.0000E-10  1.0000E-10  2.0000E-10   0.000    
   5   8.0000E-10  5.0000E-10  1.0000E-10  1.0000E-10  1.0000E-10  1.0000E-10  1.0000E-10  1.0000E-10  1.0000E-10  1.0000E-10
   6   8.0000E-10  5.0000E-10  5.0000E-10  2.0000E-10  2.0000E-10  1.0000E-10  1.0000E-10  1.0000E-10  1.0000E-10  5.0000E-10
   7   8.0000E-10  5.0000E-10  5.0000E-10  2.0000E-10  2.0000E-10  1.0000E-10  1.0000E-10  2.0000E-10  2.0000E-10   0.000    
   8    0.000      5.0000E-10  5.0000E-10  2.0000E-10  2.0000E-10  1.0000E-10  1.0000E-10  2.0000E-10  5.0000E-10   0.000    
   9    0.000      5.0000E-10  5.0000E-10  2.0000E-10  2.0000E-10  1.0000E-10  1.0000E-10  2.0000E-10  5.0000E-10   0.000    
  10    0.000      5.0000E-10  5.0000E-10  2.0000E-10  2.0000E-10  1.0000E-10  1.0000E-10  2.0000E-10  5.0000E-10  8.0000E-10
  11    0.000      1.0000E-10  1.0000E-10  1.0000E-10  1.0000E-10  1.0000E-10  1.0000E-10  2.0000E-10  5.0000E-10   0.000    
  12   1.0000E-10  1.0000E-10  1.0000E-10  1.0000E-10  1.0000E-10  1.0000E-10  1.0000E-10  1.0000E-10  2.0000E-10   0.000    
  13   1.0000E-10  1.0000E-10  2.0000E-10  2.0000E-10  2.0000E-10  2.0000E-10  2.0000E-10  1.0000E-10  1.0000E-10   0.000    
  14    0.000      2.0000E-10  5.0000E-10  5.0000E-10  5.0000E-10  5.0000E-10  5.0000E-10  2.0000E-10  1.0000E-10   0.000    
  15    0.000       0.000      8.0000E-10  8.0000E-10  8.0000E-10  8.0000E-10   0.000       0.000       0.000       0.000    

                  ET RATE =  5.000000E-08

 USING ET EXTINCTION DEPTH FROM PREVIOUS STRESS PERIOD. CURRENT PERIOD IS:      30

 USING EXTINCTION WATER CONTENT FROM PREVIOUS STRESS PERIOD. CURRENT PERIOD IS:      30

 USING AIR ENTRY PRESSURE FROM PREVIOUS STRESS PERIOD. CURRENT PERIOD IS:      30

 USING ROOT PRESSURE HEAD FROM PREVIOUS STRESS PERIOD. CURRENT PERIOD IS:      30

 USING ROOT ACTIVITY FROM PREVIOUS STRESS PERIOD. CURRENT PERIOD IS:      30
 
 SOLVING FOR HEAD 
                                                   Max.-Head-Change                         Max.-Flux-Residual
  Residual-Control   Outer-Iter.   Inner-Iter.     Column Row Layer    Maximum-Head-Change  Column Row Layer    Maximum-Flux-Residual          L2-NORM 
          0                 1           2             2    2     1       0.5835262241E-02       2    2    1         0.3046648945E+00      0.5512356727E+00
          0                 2           2             2    2     1      -0.5676134592E-03       2    2    1        -0.3046659300E-01      0.5512366314E-01
          0                 3           1             2    2     1       0.3865235714E-04       2    2    1         0.2132661451E-02      0.3858657064E-02

    ------------------------------------------------
       NWT REQUIRED            3 OUTER ITERATIONS 
       AND A TOTAL OF          5 INNER ITERATIONS.
    ------------------------------------------------

 NO OUTPUT CONTROL FOR STRESS PERIOD   30   TIME STEP    1
 
 SOLVING FOR HEAD 
                                                   Max.-Head-Change                         Max.-Flux-Residual
  Residual-Control   Outer-Iter.   Inner-Iter.     Column Row Layer    Maximum-Head-Change  Column Row Layer    Maximum-Flux-Residual          L2-NORM 
          0                 1           2             2    2     1       0.5798881540E-02       2    2    1         0.3027507601E+00      0.5467243885E+00
          0                 2           2             2    2     1      -0.5640745815E-03       2    2    1        -0.3027517774E-01      0.5467253169E-01
          0                 3           1             2    2     1       0.3841137287E-04       2    2    1         0.2119262387E-02      0.3827077942E-02

    ------------------------------------------------
       NWT REQUIRED            3 OUTER ITERATIONS 
       AND A TOTAL OF          5 INNER ITERATIONS.
    ------------------------------------------------

 NO OUTPUT CONTROL FOR STRESS PERIOD   30   TIME STEP    2
 
 SOLVING FOR HEAD 
                                                   Max.-Head-Change                         Max.-Flux-Residual
  Residual-Control   Outer-Iter.   Inner-Iter.     Column Row Layer    Maximum-Head-Change  Column Row Layer    Maximum-Flux-Residual          L2-NORM 
          0                 1           2             2    2     1       0.5763029311E-02       2    2    1         0.3008644636E+00      0.5424604867E+00
          0                 2           2             2    2     1      -0.5605871110E-03       2    2    1        -0.3008654636E-01      0.5424613960E-01
          0                 3           1             2    2     1       0.3817388923E-04       2    2    1         0.2106058213E-02      0.3797230564E-02

    ------------------------------------------------
       NWT REQUIRED            3 OUTER ITERATIONS 
       AND A TOTAL OF          5 INNER ITERATIONS.
    ------------------------------------------------

 NO OUTPUT CONTROL FOR STRESS PERIOD   30   TIME STEP    3
 
 SOLVING FOR HEAD 
                                                   Max.-Head-Change                         Max.-Flux-Residual
  Residual-Control   Outer-Iter.   Inner-Iter.     Column Row Layer    Maximum-Head-Change  Column Row Layer    Maximum-Flux-Residual          L2-NORM 
          0                 1           2             2    2     1       0.5727696812E-02       2    2    1         0.2990055678E+00      0.5384367018E+00
          0                 2           2             2    2     1      -0.5571501963E-03       2    2    1        -0.2990065505E-01      0.5384375733E-01
          0                 3           1             2    2     1       0.3793984847E-04       2    2    1         0.2093045829E-02      0.3769063477E-02

    ------------------------------------------------
       NWT REQUIRED            3 OUTER ITERATIONS 
       AND A TOTAL OF          5 INNER ITERATIONS.
    ------------------------------------------------

 NO OUTPUT CONTROL FOR STRESS PERIOD   30   TIME STEP    4
 
 SOLVING FOR HEAD 
                                                   Max.-Head-Change                         Max.-Flux-Residual
  Residual-Control   Outer-Iter.   Inner-Iter.     Column Row Layer    Maximum-Head-Change  Column Row Layer    Maximum-Flux-Residual          L2-NORM 
          0                 1           2             2    2     1       0.5692875880E-02       2    2    1         0.2971736194E+00      0.5346178904E+00
          0                 2           2             2    2     1      -0.5537630434E-03       2    2    1        -0.2971745853E-01      0.5346187566E-01
          0                 3           1             2    2     1       0.3770919593E-04       2    2    1         0.2080222071E-02      0.3742331642E-02

    ------------------------------------------------
       NWT REQUIRED            3 OUTER ITERATIONS 
       AND A TOTAL OF          5 INNER ITERATIONS.
    ------------------------------------------------

 NO OUTPUT CONTROL FOR STRESS PERIOD   30   TIME STEP    5
 
 SOLVING FOR HEAD 
                                                   Max.-Head-Change                         Max.-Flux-Residual
  Residual-Control   Outer-Iter.   Inner-Iter.     Column Row Layer    Maximum-Head-Change  Column Row Layer    Maximum-Flux-Residual          L2-NORM 
          0                 1           2             2    2     1       0.5658470787E-02       2    2    1         0.2953636086E+00      0.5309926256E+00
          0                 2           2             2    2     1      -0.5504163408E-03       2    2    1        -0.2953645578E-01      0.5309934565E-01
          0                 3           1             2    2     1       0.3748129803E-04       2    2    1         0.2067551886E-02      0.3716956237E-02

    ------------------------------------------------
       NWT REQUIRED            3 OUTER ITERATIONS 
       AND A TOTAL OF          5 INNER ITERATIONS.
    ------------------------------------------------

 NO OUTPUT CONTROL FOR STRESS PERIOD   30   TIME STEP    6
 
 SOLVING FOR HEAD 
                                                   Max.-Head-Change                         Max.-Flux-Residual
  Residual-Control   Outer-Iter.   Inner-Iter.     Column Row Layer    Maximum-Head-Change  Column Row Layer    Maximum-Flux-Residual          L2-NORM 
          0                 1           2             2    2     1       0.5624561685E-02       2    2    1         0.2935797450E+00      0.5275436112E+00
          0                 2           2             2    2     1      -0.5471178857E-03       2    2    1        -0.2935806781E-01      0.5275444395E-01
          0                 3           1             2    2     1       0.3725668634E-04       2    2    1         0.2055064758E-02      0.3692814095E-02

    ------------------------------------------------
       NWT REQUIRED            3 OUTER ITERATIONS 
       AND A TOTAL OF          5 INNER ITERATIONS.
    ------------------------------------------------

 NO OUTPUT CONTROL FOR STRESS PERIOD   30   TIME STEP    7
 
 SOLVING FOR HEAD 
                                                   Max.-Head-Change                         Max.-Flux-Residual
  Residual-Control   Outer-Iter.   Inner-Iter.     Column Row Layer    Maximum-Head-Change  Column Row Layer    Maximum-Flux-Residual          L2-NORM 
          0                 1           2             2    2     1       0.5591140448E-02       2    2    1         0.2918215980E+00      0.5242527841E+00
          0                 2           2             2    2     1      -0.5438668868E-03       2    2    1        -0.2918225153E-01      0.5242535843E-01
          0                 3           1             2    2     1       0.3703530548E-04       2    2    1         0.2042757630E-02      0.3669776097E-02

    ------------------------------------------------
       NWT REQUIRED            3 OUTER ITERATIONS 
       AND A TOTAL OF          5 INNER ITERATIONS.
    ------------------------------------------------

 NO OUTPUT CONTROL FOR STRESS PERIOD   30   TIME STEP    8
 
 SOLVING FOR HEAD 
                                                   Max.-Head-Change                         Max.-Flux-Residual
  Residual-Control   Outer-Iter.   Inner-Iter.     Column Row Layer    Maximum-Head-Change  Column Row Layer    Maximum-Flux-Residual          L2-NORM 
          0                 1           2             2    2     1       0.5558199420E-02       2    2    1         0.2900887463E+00      0.5211155065E+00
          0                 2           2             2    2     1      -0.5406625998E-03       2    2    1        -0.2900896484E-01      0.5211163060E-01
          0                 3           1             2    2     1       0.3681710526E-04       2    2    1         0.2030627560E-02      0.3647822384E-02

    ------------------------------------------------
       NWT REQUIRED            3 OUTER ITERATIONS 
       AND A TOTAL OF          5 INNER ITERATIONS.
    ------------------------------------------------

 NO OUTPUT CONTROL FOR STRESS PERIOD   30   TIME STEP    9
 
 SOLVING FOR HEAD 
                                                   Max.-Head-Change                         Max.-Flux-Residual
  Residual-Control   Outer-Iter.   Inner-Iter.     Column Row Layer    Maximum-Head-Change  Column Row Layer    Maximum-Flux-Residual          L2-NORM 
          0                 1           2             2    2     1       0.5525643401E-02       2    2    1         0.2883762055E+00      0.5181217834E+00
          0                 2           2             2    2     1      -0.5374957641E-03       2    2    1        -0.2883770924E-01      0.5181225461E-01
          0                 3           1             2    2     1       0.3660145568E-04       2    2    1         0.2018639679E-02      0.3626858562E-02

    ------------------------------------------------
       NWT REQUIRED            3 OUTER ITERATIONS 
       AND A TOTAL OF          5 INNER ITERATIONS.
    ------------------------------------------------

 NO OUTPUT CONTROL FOR STRESS PERIOD   30   TIME STEP   10
 
 SOLVING FOR HEAD 
                                                   Max.-Head-Change                         Max.-Flux-Residual
  Residual-Control   Outer-Iter.   Inner-Iter.     Column Row Layer    Maximum-Head-Change  Column Row Layer    Maximum-Flux-Residual          L2-NORM 
          0                 1           2             2    2     1       0.5493553107E-02       2    2    1         0.2866882141E+00      0.5152484486E+00
          0                 2           2             2    2     1      -0.5343742316E-03       2    2    1        -0.2866890865E-01      0.5152491956E-01
          0                 3           1             2    2     1       0.3638889113E-04       2    2    1         0.2006823650E-02      0.3606745028E-02

    ------------------------------------------------
       NWT REQUIRED            3 OUTER ITERATIONS 
       AND A TOTAL OF          5 INNER ITERATIONS.
    ------------------------------------------------

 NO OUTPUT CONTROL FOR STRESS PERIOD   30   TIME STEP   11
 
 SOLVING FOR HEAD 
                                                   Max.-Head-Change                         Max.-Flux-Residual
  Residual-Control   Outer-Iter.   Inner-Iter.     Column Row Layer    Maximum-Head-Change  Column Row Layer    Maximum-Flux-Residual          L2-NORM 
          0                 1           2             2    2     1       0.5461920927E-02       2    2    1         0.2850243702E+00      0.5124939387E+00
          0                 2           2             2    2     1      -0.5312972613E-03       2    2    1        -0.2850252281E-01      0.5124946661E-01
          0                 3           1             2    2     1       0.3617936097E-04       2    2    1         0.1995176647E-02      0.3587463762E-02

    ------------------------------------------------
       NWT REQUIRED            3 OUTER ITERATIONS 
       AND A TOTAL OF          5 INNER ITERATIONS.
    ------------------------------------------------

 NO OUTPUT CONTROL FOR STRESS PERIOD   30   TIME STEP   12
 
 SOLVING FOR HEAD 
                                                   Max.-Head-Change                         Max.-Flux-Residual
  Residual-Control   Outer-Iter.   Inner-Iter.     Column Row Layer    Maximum-Head-Change  Column Row Layer    Maximum-Flux-Residual          L2-NORM 
          0                 1           2             2    2     1       0.5430739364E-02       2    2    1         0.2833842789E+00      0.5098546149E+00
          0                 2           2             2    2     1      -0.5282641241E-03       2    2    1        -0.2833851228E-01      0.5098553174E-01
          0                 3           1             2    2     1       0.3597281620E-04       2    2    1         0.1983695922E-02      0.3568990600E-02

    ------------------------------------------------
       NWT REQUIRED            3 OUTER ITERATIONS 
       AND A TOTAL OF          5 INNER ITERATIONS.
    ------------------------------------------------

 NO OUTPUT CONTROL FOR STRESS PERIOD   30   TIME STEP   13
 
 SOLVING FOR HEAD 
                                                   Max.-Head-Change                         Max.-Flux-Residual
  Residual-Control   Outer-Iter.   Inner-Iter.     Column Row Layer    Maximum-Head-Change  Column Row Layer    Maximum-Flux-Residual          L2-NORM 
          0                 1           2             2    2     1       0.5400001452E-02       2    2    1         0.2817675516E+00      0.5073159695E+00
          0                 2           2             2    2     1      -0.5252741425E-03       2    2    1        -0.2817683818E-01      0.5073166630E-01
          0                 3           1             2    2     1       0.3576920950E-04       2    2    1         0.1972378736E-02      0.3551221930E-02

    ------------------------------------------------
       NWT REQUIRED            3 OUTER ITERATIONS 
       AND A TOTAL OF          5 INNER ITERATIONS.
    ------------------------------------------------

 NO OUTPUT CONTROL FOR STRESS PERIOD   30   TIME STEP   14
 
 SOLVING FOR HEAD 
                                                   Max.-Head-Change                         Max.-Flux-Residual
  Residual-Control   Outer-Iter.   Inner-Iter.     Column Row Layer    Maximum-Head-Change  Column Row Layer    Maximum-Flux-Residual          L2-NORM 
          0                 1           2             2    2     1       0.5369612178E-02       2    2    1         0.2801692389E+00      0.5048702602E+00
          0                 2           2             2    2     1      -0.5223180744E-03       2    2    1        -0.2801700554E-01      0.5048710046E-01
          0                 3           1             2    2     1       0.3556791249E-04       2    2    1         0.1961190471E-02      0.3534098455E-02

    ------------------------------------------------
       NWT REQUIRED            3 OUTER ITERATIONS 
       AND A TOTAL OF          5 INNER ITERATIONS.
    ------------------------------------------------

 NO OUTPUT CONTROL FOR STRESS PERIOD   30   TIME STEP   15
 
 SOLVING FOR HEAD 
                                                   Max.-Head-Change                         Max.-Flux-Residual
  Residual-Control   Outer-Iter.   Inner-Iter.     Column Row Layer    Maximum-Head-Change  Column Row Layer    Maximum-Flux-Residual          L2-NORM 
          0                 1           2             2    2     1       0.5339653265E-02       2    2    1         0.2785935908E+00      0.5025209535E+00
          0                 2           2             2    2     1      -0.5194038691E-03       2    2    1        -0.2785943943E-01      0.5025216128E-01
          0                 3           1             2    2     1       0.3536946598E-04       2    2    1         0.1950160833E-02      0.3517652160E-02

    ------------------------------------------------
       NWT REQUIRED            3 OUTER ITERATIONS 
       AND A TOTAL OF          5 INNER ITERATIONS.
    ------------------------------------------------

 NO OUTPUT CONTROL FOR STRESS PERIOD   30   TIME STEP   16
 
 SOLVING FOR HEAD 
                                                   Max.-Head-Change                         Max.-Flux-Residual
  Residual-Control   Outer-Iter.   Inner-Iter.     Column Row Layer    Maximum-Head-Change  Column Row Layer    Maximum-Flux-Residual          L2-NORM 
          0                 1           2             2    2     1       0.5310118139E-02       2    2    1         0.2770402564E+00      0.5002492913E+00
          0                 2           2             2    2     1      -0.5165308869E-03       2    2    1        -0.2770410468E-01      0.5002499484E-01
          0                 3           1             2    2     1       0.3517382641E-04       2    2    1         0.1939287403E-02      0.3501750516E-02

    ------------------------------------------------
       NWT REQUIRED            3 OUTER ITERATIONS 
       AND A TOTAL OF          5 INNER ITERATIONS.
    ------------------------------------------------

 NO OUTPUT CONTROL FOR STRESS PERIOD   30   TIME STEP   17
 
 SOLVING FOR HEAD 
                                                   Max.-Head-Change                         Max.-Flux-Residual
  Residual-Control   Outer-Iter.   Inner-Iter.     Column Row Layer    Maximum-Head-Change  Column Row Layer    Maximum-Flux-Residual          L2-NORM 
          0                 1           2             2    2     1       0.5280911738E-02       2    2    1         0.2755043061E+00      0.4980612512E+00
          0                 2           2             2    2     1      -0.5136898815E-03       2    2    1        -0.2755050840E-01      0.4980619309E-01
          0                 3           1             2    2     1       0.3498036494E-04       2    2    1         0.1928535666E-02      0.3486434094E-02

    ------------------------------------------------
       NWT REQUIRED            3 OUTER ITERATIONS 
       AND A TOTAL OF          5 INNER ITERATIONS.
    ------------------------------------------------

 NO OUTPUT CONTROL FOR STRESS PERIOD   30   TIME STEP   18
 
 SOLVING FOR HEAD 
                                                   Max.-Head-Change                         Max.-Flux-Residual
  Residual-Control   Outer-Iter.   Inner-Iter.     Column Row Layer    Maximum-Head-Change  Column Row Layer    Maximum-Flux-Residual          L2-NORM 
          0                 1           2             2    2     1       0.5252116154E-02       2    2    1         0.2739899884E+00      0.4959402547E+00
          0                 2           2             2    2     1      -0.5108888381E-03       2    2    1        -0.2739907540E-01      0.4959408727E-01
          0                 3           1             2    2     1       0.3478962451E-04       2    2    1         0.1917935384E-02      0.3471586849E-02

    ------------------------------------------------
       NWT REQUIRED            3 OUTER ITERATIONS 
       AND A TOTAL OF          5 INNER ITERATIONS.
    ------------------------------------------------

 NO OUTPUT CONTROL FOR STRESS PERIOD   30   TIME STEP   19
 
 SOLVING FOR HEAD 
                                                   Max.-Head-Change                         Max.-Flux-Residual
  Residual-Control   Outer-Iter.   Inner-Iter.     Column Row Layer    Maximum-Head-Change  Column Row Layer    Maximum-Flux-Residual          L2-NORM 
          0                 1           2             2    2     1       0.5223812522E-02       2    2    1         0.2725015603E+00      0.4938980864E+00
          0                 2           2             2    2     1      -0.5081356479E-03       2    2    1        -0.2725023138E-01      0.4938987010E-01
          0                 3           1             2    2     1       0.3460214283E-04       2    2    1         0.1907516298E-02      0.3457291592E-02

    ------------------------------------------------
       NWT REQUIRED            3 OUTER ITERATIONS 
       AND A TOTAL OF          5 INNER ITERATIONS.
    ------------------------------------------------

 NO OUTPUT CONTROL FOR STRESS PERIOD   30   TIME STEP   20
 
 SOLVING FOR HEAD 
                                                   Max.-Head-Change                         Max.-Flux-Residual
  Residual-Control   Outer-Iter.   Inner-Iter.     Column Row Layer    Maximum-Head-Change  Column Row Layer    Maximum-Flux-Residual          L2-NORM 
          0                 1           2             2    2     1       0.5195730604E-02       2    2    1         0.2710248718E+00      0.4919122844E+00
          0                 2           2             2    2     1      -0.5054040256E-03       2    2    1        -0.2710256135E-01      0.4919128862E-01
          0                 3           1             2    2     1       0.3441612995E-04       2    2    1         0.1897179427E-02      0.3443391045E-02

    ------------------------------------------------
       NWT REQUIRED            3 OUTER ITERATIONS 
       AND A TOTAL OF          5 INNER ITERATIONS.
    ------------------------------------------------

 NO OUTPUT CONTROL FOR STRESS PERIOD   30   TIME STEP   21
 
 SOLVING FOR HEAD 
                                                   Max.-Head-Change                         Max.-Flux-Residual
  Residual-Control   Outer-Iter.   Inner-Iter.     Column Row Layer    Maximum-Head-Change  Column Row Layer    Maximum-Flux-Residual          L2-NORM 
          0                 1           2             2    2     1       0.5168128727E-02       2    2    1         0.2695734467E+00      0.4899938112E+00
          0                 2           2             2    2     1      -0.5027190977E-03       2    2    1        -0.2695741767E-01      0.4899943951E-01
          0                 3           1             2    2     1       0.3423329629E-04       2    2    1         0.1887019366E-02      0.3429961188E-02

    ------------------------------------------------
       NWT REQUIRED            3 OUTER ITERATIONS 
       AND A TOTAL OF          5 INNER ITERATIONS.
    ------------------------------------------------

 NO OUTPUT CONTROL FOR STRESS PERIOD   30   TIME STEP   22
 
 SOLVING FOR HEAD 
                                                   Max.-Head-Change                         Max.-Flux-Residual
  Residual-Control   Outer-Iter.   Inner-Iter.     Column Row Layer    Maximum-Head-Change  Column Row Layer    Maximum-Flux-Residual          L2-NORM 
          0                 1           2             2    2     1       0.5140912038E-02       2    2    1         0.2681423219E+00      0.4881382810E+00
          0                 2           2             2    2     1      -0.5000716395E-03       2    2    1        -0.2681430409E-01      0.4881388567E-01
          0                 3           1             2    2     1       0.3405301422E-04       2    2    1         0.1877001424E-02      0.3416972852E-02

    ------------------------------------------------
       NWT REQUIRED            3 OUTER ITERATIONS 
       AND A TOTAL OF          5 INNER ITERATIONS.
    ------------------------------------------------

 NO OUTPUT CONTROL FOR STRESS PERIOD   30   TIME STEP   23
 
 SOLVING FOR HEAD 
                                                   Max.-Head-Change                         Max.-Flux-Residual
  Residual-Control   Outer-Iter.   Inner-Iter.     Column Row Layer    Maximum-Head-Change  Column Row Layer    Maximum-Flux-Residual          L2-NORM 
          0                 1           2             2    2     1       0.5113986916E-02       2    2    1         0.2667265788E+00      0.4863303828E+00
          0                 2           2             2    2     1      -0.4974525422E-03       2    2    1        -0.2667272865E-01      0.4863309506E-01
          0                 3           1             2    2     1       0.3387466363E-04       2    2    1         0.1867091144E-02      0.3404317406E-02

    ------------------------------------------------
       NWT REQUIRED            3 OUTER ITERATIONS 
       AND A TOTAL OF          5 INNER ITERATIONS.
    ------------------------------------------------

 NO OUTPUT CONTROL FOR STRESS PERIOD   30   TIME STEP   24
 
 SOLVING FOR HEAD 
                                                   Max.-Head-Change                         Max.-Flux-Residual
  Residual-Control   Outer-Iter.   Inner-Iter.     Column Row Layer    Maximum-Head-Change  Column Row Layer    Maximum-Flux-Residual          L2-NORM 
          0                 1           2             2    2     1       0.5087435746E-02       2    2    1         0.2653305429E+00      0.4845827395E+00
          0                 2           2             2    2     1      -0.4948698210E-03       2    2    1        -0.2653312397E-01      0.4845832972E-01
          0                 3           1             2    2     1       0.3369879006E-04       2    2    1         0.1857318831E-02      0.3392083829E-02

    ------------------------------------------------
       NWT REQUIRED            3 OUTER ITERATIONS 
       AND A TOTAL OF          5 INNER ITERATIONS.
    ------------------------------------------------

 NO OUTPUT CONTROL FOR STRESS PERIOD   30   TIME STEP   25
 
 SOLVING FOR HEAD 
                                                   Max.-Head-Change                         Max.-Flux-Residual
  Residual-Control   Outer-Iter.   Inner-Iter.     Column Row Layer    Maximum-Head-Change  Column Row Layer    Maximum-Flux-Residual          L2-NORM 
          0                 1           2             2    2     1       0.5061252506E-02       2    2    1         0.2639538959E+00      0.4828810165E+00
          0                 2           2             2    2     1      -0.4923228898E-03       2    2    1        -0.2639545822E-01      0.4828815676E-01
          0                 3           1             2    2     1       0.3352535352E-04       2    2    1         0.1847682231E-02      0.3380172590E-02

    ------------------------------------------------
       NWT REQUIRED            3 OUTER ITERATIONS 
       AND A TOTAL OF          5 INNER ITERATIONS.
    ------------------------------------------------

 NO OUTPUT CONTROL FOR STRESS PERIOD   30   TIME STEP   26
 
 SOLVING FOR HEAD 
                                                   Max.-Head-Change                         Max.-Flux-Residual
  Residual-Control   Outer-Iter.   Inner-Iter.     Column Row Layer    Maximum-Head-Change  Column Row Layer    Maximum-Flux-Residual          L2-NORM 
          0                 1           2             2    2     1       0.5035431615E-02       2    2    1         0.2625963257E+00      0.4812302936E+00
          0                 2           2             2    2     1      -0.4898112051E-03       2    2    1        -0.2625970014E-01      0.4812308246E-01
          0                 3           1             2    2     1       0.3335431709E-04       2    2    1         0.1838179165E-02      0.3368616557E-02

    ------------------------------------------------
       NWT REQUIRED            3 OUTER ITERATIONS 
       AND A TOTAL OF          5 INNER ITERATIONS.
    ------------------------------------------------

 NO OUTPUT CONTROL FOR STRESS PERIOD   30   TIME STEP   27
 
 SOLVING FOR HEAD 
                                                   Max.-Head-Change                         Max.-Flux-Residual
  Residual-Control   Outer-Iter.   Inner-Iter.     Column Row Layer    Maximum-Head-Change  Column Row Layer    Maximum-Flux-Residual          L2-NORM 
          0                 1           2             2    2     1       0.5009879071E-02       2    2    1         0.2612529525E+00      0.4796249289E+00
          0                 2           2             2    2     1      -0.4873256240E-03       2    2    1        -0.2612536181E-01      0.4796254593E-01
          0                 3           1             2    2     1       0.3318505878E-04       2    2    1         0.1828775488E-02      0.3357378961E-02

    ------------------------------------------------
       NWT REQUIRED            3 OUTER ITERATIONS 
       AND A TOTAL OF          5 INNER ITERATIONS.
    ------------------------------------------------

 NO OUTPUT CONTROL FOR STRESS PERIOD   30   TIME STEP   28
 
 SOLVING FOR HEAD 
                                                   Max.-Head-Change                         Max.-Flux-Residual
  Residual-Control   Outer-Iter.   Inner-Iter.     Column Row Layer    Maximum-Head-Change  Column Row Layer    Maximum-Flux-Residual          L2-NORM 
          0                 1           2             2    2     1       0.4984766256E-02       2    2    1         0.2599326736E+00      0.4780643553E+00
          0                 2           2             2    2     1      -0.4848828172E-03       2    2    1        -0.2599333293E-01      0.4780648814E-01
          0                 3           1             2    2     1       0.3301871273E-04       2    2    1         0.1819533475E-02      0.3346455035E-02

    ------------------------------------------------
       NWT REQUIRED            3 OUTER ITERATIONS 
       AND A TOTAL OF          5 INNER ITERATIONS.
    ------------------------------------------------

 NO OUTPUT CONTROL FOR STRESS PERIOD   30   TIME STEP   29
 
 SOLVING FOR HEAD 
                                                   Max.-Head-Change                         Max.-Flux-Residual
  Residual-Control   Outer-Iter.   Inner-Iter.     Column Row Layer    Maximum-Head-Change  Column Row Layer    Maximum-Flux-Residual          L2-NORM 
          0                 1           2             2    2     1       0.4959910788E-02       2    2    1         0.2586260130E+00      0.4765443321E+00
          0                 2           2             2    2     1      -0.4824650426E-03       2    2    1        -0.2586266588E-01      0.4765448470E-01
          0                 3           1             2    2     1       0.3285407121E-04       2    2    1         0.1810386784E-02      0.3335815196E-02

    ------------------------------------------------
       NWT REQUIRED            3 OUTER ITERATIONS 
       AND A TOTAL OF          5 INNER ITERATIONS.
    ------------------------------------------------

 NO OUTPUT CONTROL FOR STRESS PERIOD   30   TIME STEP   30



 STREAM LISTING     PERIOD     30   STEP       30

 LAYER ROW COL. STREAM  RCH.  FLOW INTO     FLOW TO   FLOW OUT OF   OVRLND.     DIRECT     STREAM       STREAM     STREAM     STREAM   STREAMBED  STREAMBED
                SEG.NO.  NO.  STRM. RCH.    AQUIFER    STRM. RCH.    RUNOFF     PRECIP       ET          HEAD       DEPTH      WIDTH   CONDCTNC.   GRADIENT

   1    1    1     1     1    7.4248E+01  4.1988E-01   7.3828E+01  0.000E+00  0.000E+00  0.000E+00  1.09474E+03  1.690E+00  1.990E+01  8.954E-02  1.563E+00
   1    2    2     1     2    7.3828E+01  6.5043E-01   7.3177E+01  0.000E+00  0.000E+00  0.000E+00  1.08974E+03  1.684E+00  1.984E+01  1.389E-01  1.561E+00
   1    3    3     1     3    7.3177E+01  5.5489E-01   7.2623E+01  0.000E+00  0.000E+00  0.000E+00  1.08410E+03  1.677E+00  1.977E+01  1.186E-01  1.559E+00
   1    3    4     1     4    7.2623E+01  5.1112E-01   7.2111E+01  0.000E+00  0.000E+00  0.000E+00  1.07908E+03  1.671E+00  1.972E+01  1.094E-01  1.557E+00
   1    4    5     2     1    7.0111E+01  4.0856E-01   6.9703E+01  0.000E+00  0.000E+00  0.000E+00  1.07417E+03  2.238E+00  1.200E+01  7.800E-02  1.746E+00
   1    5    6     2     2    6.9703E+01  3.1386E-01   6.9389E+01  0.000E+00  0.000E+00  0.000E+00  1.06874E+03  2.231E+00  1.200E+01  6.000E-02  1.744E+00
   1    6    6     2     3    6.9389E+01  3.1350E-01   6.9075E+01  0.000E+00  0.000E+00  0.000E+00  1.06402E+03  2.225E+00  1.200E+01  6.000E-02  1.742E+00
   1    7    6     2     4    6.9075E+01  3.1314E-01   6.8762E+01  0.000E+00  0.000E+00  0.000E+00  1.05929E+03  2.219E+00  1.200E+01  6.000E-02  1.740E+00
   1    8    6     2     5    6.8762E+01  3.1277E-01   6.8450E+01  0.000E+00  0.000E+00  0.000E+00  1.05457E+03  2.213E+00  1.200E+01  6.000E-02  1.738E+00
   1    3    5     3     1    2.0000E+00  2.8252E-01   1.7175E+00  0.000E+00  0.000E+00  0.000E+00  1.07555E+03  1.909E+00  9.636E+00  7.227E-02  1.955E+00
   1    3    6     3     2    1.7175E+00  2.4905E-01   1.4684E+00  0.000E+00  0.000E+00  0.000E+00  1.07264E+03  1.727E+00  8.909E+00  6.682E-02  1.864E+00
   1    3    7     3     3    1.4684E+00  1.9718E-01   1.2712E+00  0.000E+00  0.000E+00  0.000E+00  1.06987E+03  1.555E+00  8.218E+00  5.547E-02  1.777E+00
   1    4    8     3     4    1.2712E+00  2.2567E-01   1.0456E+00  0.000E+00  0.000E+00  0.000E+00  1.06682E+03  1.364E+00  7.455E+00  6.709E-02  1.682E+00
   1    5    8     3     5    1.0456E+00  1.5790E-01   8.8768E-01  0.000E+00  0.000E+00  0.000E+00  1.06362E+03  1.164E+00  6.655E+00  4.991E-02  1.582E+00
   1    6    8     3     6    8.8768E-01  5.5980E-02   8.3170E-01  0.000E+00  0.000E+00  0.000E+00  1.06158E+03  1.036E+00  6.145E+00  1.844E-02  1.518E+00
   1    5   10     4     1    1.0000E+01  9.0919E-02   9.9091E+00  0.000E+00  0.000E+00  0.000E+00  1.07836E+03  6.368E-01  1.000E+01  2.500E-02  1.212E+00
   1    5    9     4     2    9.9091E+00  1.8158E-01   9.7275E+00  0.000E+00  0.000E+00  0.000E+00  1.07154E+03  6.315E-01  1.000E+01  5.000E-02  1.211E+00
   1    6    8     4     3    9.7275E+00  1.2689E-01   9.6006E+00  0.000E+00  0.000E+00  0.000E+00  1.06381E+03  6.256E-01  1.000E+01  3.500E-02  1.209E+00
   1    6    8     5     1    1.0432E+01  2.2686E-01   1.0205E+01  0.000E+00  0.000E+00  0.000E+00  1.05868E+03  6.790E-01  1.542E+01  6.166E-02  1.226E+00
   1    7    7     5     2    1.0205E+01  2.7894E-01   9.9265E+00  0.000E+00  0.000E+00  0.000E+00  1.05417E+03  6.732E-01  1.519E+01  7.594E-02  1.224E+00
   1    8    7     5     3    9.9265E+00  1.9221E-01   9.7343E+00  0.000E+00  0.000E+00  0.000E+00  1.04992E+03  6.676E-01  1.497E+01  5.241E-02  1.223E+00
   1    8    6     5     4    9.7343E+00  1.3577E-01   9.5985E+00  0.000E+00  0.000E+00  0.000E+00  1.04691E+03  6.637E-01  1.482E+01  3.706E-02  1.221E+00
   1    9    6     6     1    9.5985E+00  2.2097E-01   9.3776E+00  0.000E+00  0.000E+00  0.000E+00  1.04341E+03  6.828E-01  1.200E+01  6.000E-02  1.228E+00
   1   10    7     6     2    9.3776E+00  2.2039E-01   9.1572E+00  0.000E+00  0.000E+00  0.000E+00  1.03885E+03  6.732E-01  1.200E+01  6.000E-02  1.224E+00
   1   11    7     6     3    9.1572E+00  2.1981E-01   8.9374E+00  0.000E+00  0.000E+00  0.000E+00  1.03430E+03  6.636E-01  1.200E+01  6.000E-02  1.221E+00
   1   12    7     6     4    8.9374E+00  2.1923E-01   8.7181E+00  0.000E+00  0.000E+00  0.000E+00  1.02974E+03  6.539E-01  1.200E+01  6.000E-02  1.218E+00
   1   13    7     6     5    8.7181E+00 -1.1043E-01   8.8286E+00  0.000E+00  0.000E+00  0.000E+00  1.02656E+03  6.514E-01  1.200E+01  2.400E-01 -1.534E-01
   1   14    9     7     1    1.5000E+02  1.3445E+00   1.4866E+02  0.000E+00  0.000E+00  0.000E+00  1.03987E+03  2.288E+00  5.529E+01  5.593E-01  8.013E-01
   1   13    8     7     2    1.4866E+02  1.8496E+00   1.4681E+02  0.000E+00  0.000E+00  0.000E+00  1.03478E+03  2.279E+00  5.526E+01  6.148E-01  1.003E+00
   1   13    7     7     3    1.4681E+02  1.4905E+00   1.4532E+02  0.000E+00  0.000E+00  0.000E+00  1.02969E+03  2.270E+00  5.522E+01  5.584E-01  8.897E-01
   1   13    6     8     1    1.5414E+02  8.4252E-01   1.5330E+02  0.000E+00  0.000E+00  0.000E+00  1.02472E+03  2.843E+00  4.122E+01  4.201E-01  6.686E-01
   1   13    5     8     2    1.5330E+02  1.1229E-01   1.5319E+02  0.000E+00  0.000E+00  0.000E+00  1.01846E+03  2.840E+00  4.117E+01  4.196E-01  8.921E-02
   1   13    4     8     3    1.5319E+02 -2.6395E+00   1.5583E+02  0.000E+00  0.000E+00  0.000E+00  1.01222E+03  2.848E+00  4.130E+01  4.209E+00 -2.091E-01
   1   13    3     8     4    1.5583E+02 -3.7276E+00   1.5956E+02  0.000E+00  0.000E+00  0.000E+00  1.00600E+03  2.870E+00  4.162E+01  4.241E+00 -2.930E-01
   1   13    2     8     5    1.5956E+02 -2.5933E+00   1.6215E+02  0.000E+00  0.000E+00  0.000E+00  9.99767E+02  2.892E+00  4.193E+01  4.273E+00 -2.023E-01
   1   13    1     8     6    1.6215E+02 -1.9794E+00   1.6413E+02  0.000E+00  0.000E+00  0.000E+00  9.94782E+02  2.907E+00  4.215E+01  2.577E+00 -2.560E-01
   1    8    6     9     1    6.8450E+01  0.0000E+00   6.8450E+01  0.000E+00  0.000E+00  0.000E+00  1.08594E+03  7.186E+00  4.000E+00  0.000E+00  3.395E+00
   1    8    5     9     2    6.8450E+01  0.0000E+00   6.8450E+01  0.000E+00  0.000E+00  0.000E+00  1.08544E+03  7.186E+00  4.000E+00  0.000E+00  3.395E+00





UNSATURATED ZONE PACKAGE VOLUMETRIC BUDGET FOR  TIME STEP    30 STRESS PERIOD   30
  ------------------------------------------------------------------------------



     CUMULATIVE VOLUMES      L**3       RATES FOR THIS TIME STEP      L**3/T
     ------------------                 ------------------------

           IN:                                      IN:
           ---                                      ---
        INFILTRATION =    64712045.3095          INFILTRATION =           0.8475

          OUT:                                     OUT:
          ----                                     ----
              UZF ET =    63905676.2629                UZF ET =           0.8475
        UZF RECHARGE =       73224.0000          UZF RECHARGE =       0.0000E+00

            IN - OUT =      733145.0466              IN - OUT =       0.0000E+00

          STORAGE:                                 STORAGE:
          --------                                 --------
      STORAGE CHANGE =      733145.3167        STORAGE CHANGE =       1.6599E-16

 PERCENT DISCREPANCY IS DIFFERENCE BETWEEN IN-OUT MINUS CHANGE IN STORAGE
 DIVIDED BY THE AVERAGE OF IN AND OUT TIMES 100

 PERCENT DISCREPANCY =           0.00     PERCENT DISCREPANCY =           0.00






1
  VOLUMETRIC BUDGET FOR ENTIRE MODEL AT END OF TIME STEP   30, STRESS PERIOD  30
  ------------------------------------------------------------------------------

     CUMULATIVE VOLUMES      L**3       RATES FOR THIS TIME STEP      L**3/T
     ------------------                 ------------------------

           IN:                                      IN:
           ---                                      ---
             STORAGE     =    26406440.0000               STORAGE     =           0.1267
       CONSTANT HEAD     =           0.0000         CONSTANT HEAD     =           0.0000
     HEAD DEP BOUNDS     =    21844462.0000       HEAD DEP BOUNDS     =           0.2863
      STREAM LEAKAGE     =   893848000.0000        STREAM LEAKAGE     =          12.7194
        UZF RECHARGE     =       73223.9531          UZF RECHARGE     =           0.0000
               GW ET     =           0.0000                 GW ET     =           0.0000
     SURFACE LEAKAGE     =           0.0000       SURFACE LEAKAGE     =           0.0000

                TOTAL IN =   942172096.0000                  TOTAL IN =          13.1324

          OUT:                                     OUT:
          ----                                     ----
             STORAGE     =    74462280.0000               STORAGE     =           1.7958
       CONSTANT HEAD     =           0.0000         CONSTANT HEAD     =           0.0000
     HEAD DEP BOUNDS     =    21908476.0000       HEAD DEP BOUNDS     =           0.2869
      STREAM LEAKAGE     =   845814720.0000        STREAM LEAKAGE     =          11.0502
        UZF RECHARGE     =           0.0000          UZF RECHARGE     =           0.0000
               GW ET     =           0.0000                 GW ET     =           0.0000
     SURFACE LEAKAGE     =           0.0000       SURFACE LEAKAGE     =           0.0000

               TOTAL OUT =   942185472.0000                 TOTAL OUT =          13.1329

                IN - OUT =      -13376.0000                  IN - OUT =      -4.7302E-04

     PERCENT DISCREPANCY =          -0.00         PERCENT DISCREPANCY =          -0.00






         TIME SUMMARY AT END OF TIME STEP   30 IN STRESS PERIOD   30
                    SECONDS     MINUTES      HOURS       DAYS        YEARS
                    -----------------------------------------------------------
   TIME STEP LENGTH  87667.      1461.1      24.352      1.0147     2.77799E-03
 STRESS PERIOD TIME 2.63000E+06  43833.      730.56      30.440     8.33397E-02
         TOTAL TIME 7.63565E+07 1.27261E+06  21210.      883.76      2.4196    
1
1
                            STRESS PERIOD NO.   31, LENGTH =   2630000.    
                            -----------------------------------------------

                              NUMBER OF TIME STEPS =    30

                               MULTIPLIER FOR DELT =     1.000

                            INITIAL TIME STEP SIZE =   87666.66    

 REUSING NON-PARAMETER GHB CELLS FROM LAST STRESS PERIOD

      2 GHB CELLS

 REUSING STREAM SEGMENT DATA FROM LAST STRESS PERIOD



            AREAL INFILTRATION RATE
 READING ON UNIT   19 WITH FORMAT: (FREE)              

            1           2           3           4           5           6           7           8           9          10
 ........................................................................................................................
   1   1.0000E-10  2.0000E-10   0.000       0.000       0.000       0.000       0.000       0.000       0.000       0.000    
   2   2.0000E-10  1.0000E-10  2.0000E-10   0.000       0.000      8.0000E-10  8.0000E-10  5.0000E-10   0.000       0.000    
   3    0.000      5.0000E-10  1.0000E-10  1.0000E-10  8.0000E-10  8.0000E-10  5.0000E-10  5.0000E-10   0.000       0.000    
   4   8.0000E-10  5.0000E-10  1.0000E-10  1.0000E-10  1.0000E-10  1.0000E-10  1.0000E-10  1.0000E-10  2.0000E-10   0.000    
   5   8.0000E-10  5.0000E-10  1.0000E-10  1.0000E-10  1.0000E-10  1.0000E-10  1.0000E-10  1.0000E-10  1.0000E-10  1.0000E-10
   6   8.0000E-10  5.0000E-10  5.0000E-10  2.0000E-10  2.0000E-10  1.0000E-10  1.0000E-10  1.0000E-10  1.0000E-10  5.0000E-10
   7   8.0000E-10  5.0000E-10  5.0000E-10  2.0000E-10  2.0000E-10  1.0000E-10  1.0000E-10  2.0000E-10  2.0000E-10   0.000    
   8    0.000      5.0000E-10  5.0000E-10  2.0000E-10  2.0000E-10  1.0000E-10  1.0000E-10  2.0000E-10  5.0000E-10   0.000    
   9    0.000      5.0000E-10  5.0000E-10  2.0000E-10  2.0000E-10  1.0000E-10  1.0000E-10  2.0000E-10  5.0000E-10   0.000    
  10    0.000      5.0000E-10  5.0000E-10  2.0000E-10  2.0000E-10  1.0000E-10  1.0000E-10  2.0000E-10  5.0000E-10  8.0000E-10
  11    0.000      1.0000E-10  1.0000E-10  1.0000E-10  1.0000E-10  1.0000E-10  1.0000E-10  2.0000E-10  5.0000E-10   0.000    
  12   1.0000E-10  1.0000E-10  1.0000E-10  1.0000E-10  1.0000E-10  1.0000E-10  1.0000E-10  1.0000E-10  2.0000E-10   0.000    
  13   1.0000E-10  1.0000E-10  2.0000E-10  2.0000E-10  2.0000E-10  2.0000E-10  2.0000E-10  1.0000E-10  1.0000E-10   0.000    
  14    0.000      2.0000E-10  5.0000E-10  5.0000E-10  5.0000E-10  5.0000E-10  5.0000E-10  2.0000E-10  1.0000E-10   0.000    
  15    0.000       0.000      8.0000E-10  8.0000E-10  8.0000E-10  8.0000E-10   0.000       0.000       0.000       0.000    

                  ET RATE =  1.500000E-07

 USING ET EXTINCTION DEPTH FROM PREVIOUS STRESS PERIOD. CURRENT PERIOD IS:      31

 USING EXTINCTION WATER CONTENT FROM PREVIOUS STRESS PERIOD. CURRENT PERIOD IS:      31

 USING AIR ENTRY PRESSURE FROM PREVIOUS STRESS PERIOD. CURRENT PERIOD IS:      31

 USING ROOT PRESSURE HEAD FROM PREVIOUS STRESS PERIOD. CURRENT PERIOD IS:      31

 USING ROOT ACTIVITY FROM PREVIOUS STRESS PERIOD. CURRENT PERIOD IS:      31
 
 SOLVING FOR HEAD 
                                                   Max.-Head-Change                         Max.-Flux-Residual
  Residual-Control   Outer-Iter.   Inner-Iter.     Column Row Layer    Maximum-Head-Change  Column Row Layer    Maximum-Flux-Residual          L2-NORM 
          0                 1           2             2    2     1       0.4343868669E-02       2    2    1         0.2264110220E+00      0.4272689880E+00
          0                 2           2             2    2     1      -0.4225406850E-03       2    2    1        -0.2264114969E-01      0.4272693628E-01
          0                 3           1             2    2     1       0.2877344698E-04       2    2    1         0.1584880709E-02      0.2990887656E-02

    ------------------------------------------------
       NWT REQUIRED            3 OUTER ITERATIONS 
       AND A TOTAL OF          5 INNER ITERATIONS.
    ------------------------------------------------

 NO OUTPUT CONTROL FOR STRESS PERIOD   31   TIME STEP    1
 
 SOLVING FOR HEAD 
                                                   Max.-Head-Change                         Max.-Flux-Residual
  Residual-Control   Outer-Iter.   Inner-Iter.     Column Row Layer    Maximum-Head-Change  Column Row Layer    Maximum-Flux-Residual          L2-NORM 
          0                 1           2             1    1     1       0.3886631153E-02       1    1    1         0.2017505020E+00      0.3796131652E+00
          0                 2           2             1    1     1      -0.3780636343E-03       1    1    1        -0.2017507704E-01      0.3796133877E-01
          0                 3           1             1    1     1       0.2574472824E-04       1    1    1         0.1412255766E-02      0.2657294576E-02

    ------------------------------------------------
       NWT REQUIRED            3 OUTER ITERATIONS 
       AND A TOTAL OF          5 INNER ITERATIONS.
    ------------------------------------------------

 NO OUTPUT CONTROL FOR STRESS PERIOD   31   TIME STEP    2
 
 SOLVING FOR HEAD 
                                                   Max.-Head-Change                         Max.-Flux-Residual
  Residual-Control   Outer-Iter.   Inner-Iter.     Column Row Layer    Maximum-Head-Change  Column Row Layer    Maximum-Flux-Residual          L2-NORM 
          0                 1           2             1    1     1       0.3882848799E-02       1    1    1         0.2015536826E+00      0.3789091597E+00
          0                 2           2             1    1     1      -0.3776957121E-03       1    1    1        -0.2015539497E-01      0.3789093952E-01
          0                 3           1             1    1     1       0.2571967377E-04       1    1    1         0.1410878002E-02      0.2652366419E-02

    ------------------------------------------------
       NWT REQUIRED            3 OUTER ITERATIONS 
       AND A TOTAL OF          5 INNER ITERATIONS.
    ------------------------------------------------

 NO OUTPUT CONTROL FOR STRESS PERIOD   31   TIME STEP    3
 
 SOLVING FOR HEAD 
                                                   Max.-Head-Change                         Max.-Flux-Residual
  Residual-Control   Outer-Iter.   Inner-Iter.     Column Row Layer    Maximum-Head-Change  Column Row Layer    Maximum-Flux-Residual          L2-NORM 
          0                 1           2             1    1     1       0.3879080095E-02       1    1    1         0.2013575741E+00      0.3782214877E+00
          0                 2           2             1    1     1      -0.3773291184E-03       1    1    1        -0.2013578400E-01      0.3782217172E-01
          0                 3           1             1    1     1       0.2569471018E-04       1    1    1         0.1409505243E-02      0.2647553884E-02

    ------------------------------------------------
       NWT REQUIRED            3 OUTER ITERATIONS 
       AND A TOTAL OF          5 INNER ITERATIONS.
    ------------------------------------------------

 NO OUTPUT CONTROL FOR STRESS PERIOD   31   TIME STEP    4
 
 SOLVING FOR HEAD 
                                                   Max.-Head-Change                         Max.-Flux-Residual
  Residual-Control   Outer-Iter.   Inner-Iter.     Column Row Layer    Maximum-Head-Change  Column Row Layer    Maximum-Flux-Residual          L2-NORM 
          0                 1           2             1    1     1       0.3875324966E-02       1    1    1         0.2011621733E+00      0.3775470445E+00
          0                 2           2             1    1     1      -0.3769638447E-03       1    1    1        -0.2011624381E-01      0.3775472654E-01
          0                 3           1             1    1     1       0.2566983653E-04       1    1    1         0.1408137416E-02      0.2642831581E-02

    ------------------------------------------------
       NWT REQUIRED            3 OUTER ITERATIONS 
       AND A TOTAL OF          5 INNER ITERATIONS.
    ------------------------------------------------

 NO OUTPUT CONTROL FOR STRESS PERIOD   31   TIME STEP    5
 
 SOLVING FOR HEAD 
                                                   Max.-Head-Change                         Max.-Flux-Residual
  Residual-Control   Outer-Iter.   Inner-Iter.     Column Row Layer    Maximum-Head-Change  Column Row Layer    Maximum-Flux-Residual          L2-NORM 
          0                 1           2             1    1     1       0.3871583369E-02       1    1    1         0.2009674763E+00      0.3768858070E+00
          0                 2           2             1    1     1      -0.3765998877E-03       1    1    1        -0.2009677399E-01      0.3768860190E-01
          0                 3           1             1    1     1       0.2564505234E-04       1    1    1         0.1406774538E-02      0.2638204048E-02

    ------------------------------------------------
       NWT REQUIRED            3 OUTER ITERATIONS 
       AND A TOTAL OF          5 INNER ITERATIONS.
    ------------------------------------------------

 NO OUTPUT CONTROL FOR STRESS PERIOD   31   TIME STEP    6
 
 SOLVING FOR HEAD 
                                                   Max.-Head-Change                         Max.-Flux-Residual
  Residual-Control   Outer-Iter.   Inner-Iter.     Column Row Layer    Maximum-Head-Change  Column Row Layer    Maximum-Flux-Residual          L2-NORM 
          0                 1           2             1    1     1       0.3867832165E-02       1    1    1         0.2007722848E+00      0.3762347496E+00
          0                 2           2             1    1     1      -0.3762349960E-03       1    1    1        -0.2007725472E-01      0.3762349733E-01
          0                 3           1             1    1     1       0.2562020496E-04       1    1    1         0.1405408202E-02      0.2633645638E-02

    ------------------------------------------------
       NWT REQUIRED            3 OUTER ITERATIONS 
       AND A TOTAL OF          5 INNER ITERATIONS.
    ------------------------------------------------

 NO OUTPUT CONTROL FOR STRESS PERIOD   31   TIME STEP    7
 
 SOLVING FOR HEAD 
                                                   Max.-Head-Change                         Max.-Flux-Residual
  Residual-Control   Outer-Iter.   Inner-Iter.     Column Row Layer    Maximum-Head-Change  Column Row Layer    Maximum-Flux-Residual          L2-NORM 
          0                 1           2             1    1     1       0.3864117431E-02       1    1    1         0.2005789875E+00      0.3755971913E+00
          0                 2           2             1    1     1      -0.3758736522E-03       1    1    1        -0.2005792490E-01      0.3755974043E-01
          0                 3           1             1    1     1       0.2559559851E-04       1    1    1         0.1404055106E-02      0.2629183216E-02

    ------------------------------------------------
       NWT REQUIRED            3 OUTER ITERATIONS 
       AND A TOTAL OF          5 INNER ITERATIONS.
    ------------------------------------------------

 NO OUTPUT CONTROL FOR STRESS PERIOD   31   TIME STEP    8
 
 SOLVING FOR HEAD 
                                                   Max.-Head-Change                         Max.-Flux-Residual
  Residual-Control   Outer-Iter.   Inner-Iter.     Column Row Layer    Maximum-Head-Change  Column Row Layer    Maximum-Flux-Residual          L2-NORM 
          0                 1           2             1    1     1       0.3860416030E-02       1    1    1         0.2003863850E+00      0.3749720962E+00
          0                 2           2             1    1     1      -0.3755136047E-03       1    1    1        -0.2003866452E-01      0.3749723038E-01
          0                 3           1             1    1     1       0.2557108035E-04       1    1    1         0.1402706869E-02      0.2624807932E-02

    ------------------------------------------------
       NWT REQUIRED            3 OUTER ITERATIONS 
       AND A TOTAL OF          5 INNER ITERATIONS.
    ------------------------------------------------

 NO OUTPUT CONTROL FOR STRESS PERIOD   31   TIME STEP    9
 
 SOLVING FOR HEAD 
                                                   Max.-Head-Change                         Max.-Flux-Residual
  Residual-Control   Outer-Iter.   Inner-Iter.     Column Row Layer    Maximum-Head-Change  Column Row Layer    Maximum-Flux-Residual          L2-NORM 
          0                 1           2             1    1     1       0.3856727854E-02       1    1    1         0.2001944738E+00      0.3743510585E+00
          0                 2           2             1    1     1      -0.3751548444E-03       1    1    1        -0.2001947331E-01      0.3743512688E-01
          0                 3           1             1    1     1       0.2554665022E-04       1    1    1         0.1401363477E-02      0.2620459753E-02

    ------------------------------------------------
       NWT REQUIRED            3 OUTER ITERATIONS 
       AND A TOTAL OF          5 INNER ITERATIONS.
    ------------------------------------------------

 NO OUTPUT CONTROL FOR STRESS PERIOD   31   TIME STEP   10
 
 SOLVING FOR HEAD 
                                                   Max.-Head-Change                         Max.-Flux-Residual
  Residual-Control   Outer-Iter.   Inner-Iter.     Column Row Layer    Maximum-Head-Change  Column Row Layer    Maximum-Flux-Residual          L2-NORM 
          0                 1           2             1    1     1       0.3853052882E-02       1    1    1         0.2000032483E+00      0.3737460940E+00
          0                 2           2             1    1     1      -0.3747973679E-03       1    1    1        -0.2000035063E-01      0.3737463060E-01
          0                 3           1             1    1     1       0.2552230743E-04       1    1    1         0.1400024897E-02      0.2616226480E-02

    ------------------------------------------------
       NWT REQUIRED            3 OUTER ITERATIONS 
       AND A TOTAL OF          5 INNER ITERATIONS.
    ------------------------------------------------

 NO OUTPUT CONTROL FOR STRESS PERIOD   31   TIME STEP   11
 
 SOLVING FOR HEAD 
                                                   Max.-Head-Change                         Max.-Flux-Residual
  Residual-Control   Outer-Iter.   Inner-Iter.     Column Row Layer    Maximum-Head-Change  Column Row Layer    Maximum-Flux-Residual          L2-NORM 
          0                 1           2             1    1     1       0.3849368008E-02       1    1    1         0.1998115106E+00      0.3731506881E+00
          0                 2           2             1    1     1      -0.3744389285E-03       1    1    1        -0.1998117675E-01      0.3731508954E-01
          0                 3           1             1    1     1       0.2549789908E-04       1    1    1         0.1398682735E-02      0.2612056780E-02

    ------------------------------------------------
       NWT REQUIRED            3 OUTER ITERATIONS 
       AND A TOTAL OF          5 INNER ITERATIONS.
    ------------------------------------------------

 NO OUTPUT CONTROL FOR STRESS PERIOD   31   TIME STEP   12
 
 SOLVING FOR HEAD 
                                                   Max.-Head-Change                         Max.-Flux-Residual
  Residual-Control   Outer-Iter.   Inner-Iter.     Column Row Layer    Maximum-Head-Change  Column Row Layer    Maximum-Flux-Residual          L2-NORM 
          0                 1           2             1    1     1       0.3845719290E-02       1    1    1         0.1996216531E+00      0.3725656708E+00
          0                 2           2             1    1     1      -0.3740840061E-03       1    1    1        -0.1996219088E-01      0.3725658715E-01
          0                 3           1             1    1     1       0.2547373024E-04       1    1    1         0.1397353727E-02      0.2607962120E-02

    ------------------------------------------------
       NWT REQUIRED            3 OUTER ITERATIONS 
       AND A TOTAL OF          5 INNER ITERATIONS.
    ------------------------------------------------

 NO OUTPUT CONTROL FOR STRESS PERIOD   31   TIME STEP   13
 
 SOLVING FOR HEAD 
                                                   Max.-Head-Change                         Max.-Flux-Residual
  Residual-Control   Outer-Iter.   Inner-Iter.     Column Row Layer    Maximum-Head-Change  Column Row Layer    Maximum-Flux-Residual          L2-NORM 
          0                 1           2             1    1     1       0.3842083558E-02       1    1    1         0.1994324734E+00      0.3719904490E+00
          0                 2           2             1    1     1      -0.3737303466E-03       1    1    1        -0.1994327281E-01      0.3719906574E-01
          0                 3           1             1    1     1       0.2544964731E-04       1    1    1         0.1396029450E-02      0.2603936086E-02

    ------------------------------------------------
       NWT REQUIRED            3 OUTER ITERATIONS 
       AND A TOTAL OF          5 INNER ITERATIONS.
    ------------------------------------------------

 NO OUTPUT CONTROL FOR STRESS PERIOD   31   TIME STEP   14
 
 SOLVING FOR HEAD 
                                                   Max.-Head-Change                         Max.-Flux-Residual
  Residual-Control   Outer-Iter.   Inner-Iter.     Column Row Layer    Maximum-Head-Change  Column Row Layer    Maximum-Flux-Residual          L2-NORM 
          0                 1           2             1    1     1       0.3838437709E-02       1    1    1         0.1992427700E+00      0.3714243081E+00
          0                 2           2             1    1     1      -0.3733757037E-03       1    1    1        -0.1992430237E-01      0.3714245094E-01
          0                 3           1             1    1     1       0.2542549765E-04       1    1    1         0.1394701527E-02      0.2599972533E-02

    ------------------------------------------------
       NWT REQUIRED            3 OUTER ITERATIONS 
       AND A TOTAL OF          5 INNER ITERATIONS.
    ------------------------------------------------

 NO OUTPUT CONTROL FOR STRESS PERIOD   31   TIME STEP   15
 
 SOLVING FOR HEAD 
                                                   Max.-Head-Change                         Max.-Flux-Residual
  Residual-Control   Outer-Iter.   Inner-Iter.     Column Row Layer    Maximum-Head-Change  Column Row Layer    Maximum-Flux-Residual          L2-NORM 
          0                 1           2             1    1     1       0.3834827834E-02       1    1    1         0.1990549362E+00      0.3708711455E+00
          0                 2           2             1    1     1      -0.3730245594E-03       1    1    1        -0.1990551887E-01      0.3708713424E-01
          0                 3           1             1    1     1       0.2540158584E-04       1    1    1         0.1393386682E-02      0.2596100574E-02

    ------------------------------------------------
       NWT REQUIRED            3 OUTER ITERATIONS 
       AND A TOTAL OF          5 INNER ITERATIONS.
    ------------------------------------------------

 NO OUTPUT CONTROL FOR STRESS PERIOD   31   TIME STEP   16
 
 SOLVING FOR HEAD 
                                                   Max.-Head-Change                         Max.-Flux-Residual
  Residual-Control   Outer-Iter.   Inner-Iter.     Column Row Layer    Maximum-Head-Change  Column Row Layer    Maximum-Flux-Residual          L2-NORM 
          0                 1           2             1    1     1       0.3831207732E-02       1    1    1         0.1988665732E+00      0.3703242751E+00
          0                 2           2             1    1     1      -0.3726724207E-03       1    1    1        -0.1988668247E-01      0.3703244666E-01
          0                 3           1             1    1     1       0.2537760657E-04       1    1    1         0.1392068142E-02      0.2592271770E-02

    ------------------------------------------------
       NWT REQUIRED            3 OUTER ITERATIONS 
       AND A TOTAL OF          5 INNER ITERATIONS.
    ------------------------------------------------

 NO OUTPUT CONTROL FOR STRESS PERIOD   31   TIME STEP   17
 
 SOLVING FOR HEAD 
                                                   Max.-Head-Change                         Max.-Flux-Residual
  Residual-Control   Outer-Iter.   Inner-Iter.     Column Row Layer    Maximum-Head-Change  Column Row Layer    Maximum-Flux-Residual          L2-NORM 
          0                 1           2             1    1     1       0.3827623484E-02       1    1    1         0.1986800745E+00      0.3697777839E+00
          0                 2           2             1    1     1      -0.3723237696E-03       1    1    1        -0.1986803250E-01      0.3697779816E-01
          0                 3           1             1    1     1       0.2535386493E-04       1    1    1         0.1390762647E-02      0.2588447186E-02

    ------------------------------------------------
       NWT REQUIRED            3 OUTER ITERATIONS 
       AND A TOTAL OF          5 INNER ITERATIONS.
    ------------------------------------------------

 NO OUTPUT CONTROL FOR STRESS PERIOD   31   TIME STEP   18
 
 SOLVING FOR HEAD 
                                                   Max.-Head-Change                         Max.-Flux-Residual
  Residual-Control   Outer-Iter.   Inner-Iter.     Column Row Layer    Maximum-Head-Change  Column Row Layer    Maximum-Flux-Residual          L2-NORM 
          0                 1           2             1    1     1       0.3824028880E-02       1    1    1         0.1984930400E+00      0.3692508616E+00
          0                 2           2             1    1     1      -0.3719741110E-03       1    1    1        -0.1984932894E-01      0.3692510435E-01
          0                 3           1             1    1     1       0.2533005418E-04       1    1    1         0.1389453395E-02      0.2584758662E-02

    ------------------------------------------------
       NWT REQUIRED            3 OUTER ITERATIONS 
       AND A TOTAL OF          5 INNER ITERATIONS.
    ------------------------------------------------

 NO OUTPUT CONTROL FOR STRESS PERIOD   31   TIME STEP   19
 
 SOLVING FOR HEAD 
                                                   Max.-Head-Change                         Max.-Flux-Residual
  Residual-Control   Outer-Iter.   Inner-Iter.     Column Row Layer    Maximum-Head-Change  Column Row Layer    Maximum-Flux-Residual          L2-NORM 
          0                 1           2             1    1     1       0.3820470013E-02       1    1    1         0.1983078637E+00      0.3687244753E+00
          0                 2           2             1    1     1      -0.3716279285E-03       1    1    1        -0.1983081119E-01      0.3687246598E-01
          0                 3           1             1    1     1       0.2530648057E-04       1    1    1         0.1388157149E-02      0.2581073105E-02

    ------------------------------------------------
       NWT REQUIRED            3 OUTER ITERATIONS 
       AND A TOTAL OF          5 INNER ITERATIONS.
    ------------------------------------------------

 NO OUTPUT CONTROL FOR STRESS PERIOD   31   TIME STEP   20
 
 SOLVING FOR HEAD 
                                                   Max.-Head-Change                         Max.-Flux-Residual
  Residual-Control   Outer-Iter.   Inner-Iter.     Column Row Layer    Maximum-Head-Change  Column Row Layer    Maximum-Flux-Residual          L2-NORM 
          0                 1           2             1    1     1       0.3816900664E-02       1    1    1         0.1981221449E+00      0.3682159256E+00
          0                 2           2             1    1     1      -0.3712807267E-03       1    1    1        -0.1981223920E-01      0.3682161167E-01
          0                 3           1             1    1     1       0.2528283762E-04       1    1    1         0.1386857127E-02      0.2577513777E-02

    ------------------------------------------------
       NWT REQUIRED            3 OUTER ITERATIONS 
       AND A TOTAL OF          5 INNER ITERATIONS.
    ------------------------------------------------

 NO OUTPUT CONTROL FOR STRESS PERIOD   31   TIME STEP   21
 
 SOLVING FOR HEAD 
                                                   Max.-Head-Change                         Max.-Flux-Residual
  Residual-Control   Outer-Iter.   Inner-Iter.     Column Row Layer    Maximum-Head-Change  Column Row Layer    Maximum-Flux-Residual          L2-NORM 
          0                 1           2             1    1     1       0.3813366937E-02       1    1    1         0.1979382783E+00      0.3677057754E+00
          0                 2           2             1    1     1      -0.3709369900E-03       1    1    1        -0.1979385245E-01      0.3677059692E-01
          0                 3           1             1    1     1       0.2525943040E-04       1    1    1         0.1385570048E-02      0.2573942843E-02

    ------------------------------------------------
       NWT REQUIRED            3 OUTER ITERATIONS 
       AND A TOTAL OF          5 INNER ITERATIONS.
    ------------------------------------------------

 NO OUTPUT CONTROL FOR STRESS PERIOD   31   TIME STEP   22
 
 SOLVING FOR HEAD 
                                                   Max.-Head-Change                         Max.-Flux-Residual
  Residual-Control   Outer-Iter.   Inner-Iter.     Column Row Layer    Maximum-Head-Change  Column Row Layer    Maximum-Flux-Residual          L2-NORM 
          0                 1           2             1    1     1       0.3809822630E-02       1    1    1         0.1977538627E+00      0.3672070569E+00
          0                 2           2             1    1     1      -0.3705922240E-03       1    1    1        -0.1977541080E-01      0.3672072368E-01
          0                 3           1             1    1     1       0.2523595289E-04       1    1    1         0.1384279119E-02      0.2570468901E-02

    ------------------------------------------------
       NWT REQUIRED            3 OUTER ITERATIONS 
       AND A TOTAL OF          5 INNER ITERATIONS.
    ------------------------------------------------

 NO OUTPUT CONTROL FOR STRESS PERIOD   31   TIME STEP   23
 
 SOLVING FOR HEAD 
                                                   Max.-Head-Change                         Max.-Flux-Residual
  Residual-Control   Outer-Iter.   Inner-Iter.     Column Row Layer    Maximum-Head-Change  Column Row Layer    Maximum-Flux-Residual          L2-NORM 
          0                 1           2             1    1     1       0.3806313848E-02       1    1    1         0.1975712947E+00      0.3667143107E+00
          0                 2           2             1    1     1      -0.3702509134E-03       1    1    1        -0.1975715389E-01      0.3667144870E-01
          0                 3           1             1    1     1       0.2521271086E-04       1    1    1         0.1383001138E-02      0.2567002286E-02

    ------------------------------------------------
       NWT REQUIRED            3 OUTER ITERATIONS 
       AND A TOTAL OF          5 INNER ITERATIONS.
    ------------------------------------------------

 NO OUTPUT CONTROL FOR STRESS PERIOD   31   TIME STEP   24
 
 SOLVING FOR HEAD 
                                                   Max.-Head-Change                         Max.-Flux-Residual
  Residual-Control   Outer-Iter.   Inner-Iter.     Column Row Layer    Maximum-Head-Change  Column Row Layer    Maximum-Flux-Residual          L2-NORM 
          0                 1           2             1    1     1       0.3802794336E-02       1    1    1         0.1973881722E+00      0.3662237046E+00
          0                 2           2             1    1     1      -0.3699085591E-03       1    1    1        -0.1973884152E-01      0.3662238917E-01
          0                 3           1             1    1     1       0.2518939807E-04       1    1    1         0.1381719276E-02      0.2563568557E-02

    ------------------------------------------------
       NWT REQUIRED            3 OUTER ITERATIONS 
       AND A TOTAL OF          5 INNER ITERATIONS.
    ------------------------------------------------

 NO OUTPUT CONTROL FOR STRESS PERIOD   31   TIME STEP   25
 
 SOLVING FOR HEAD 
                                                   Max.-Head-Change                         Max.-Flux-Residual
  Residual-Control   Outer-Iter.   Inner-Iter.     Column Row Layer    Maximum-Head-Change  Column Row Layer    Maximum-Flux-Residual          L2-NORM 
          0                 1           2             1    1     1       0.3799287147E-02       1    1    1         0.1972056917E+00      0.3657435045E+00
          0                 2           2             1    1     1      -0.3695674039E-03       1    1    1        -0.1972059338E-01      0.3657436755E-01
          0                 3           1             1    1     1       0.2516616670E-04       1    1    1         0.1380441917E-02      0.2560206391E-02

    ------------------------------------------------
       NWT REQUIRED            3 OUTER ITERATIONS 
       AND A TOTAL OF          5 INNER ITERATIONS.
    ------------------------------------------------

 NO OUTPUT CONTROL FOR STRESS PERIOD   31   TIME STEP   26
 
 SOLVING FOR HEAD 
                                                   Max.-Head-Change                         Max.-Flux-Residual
  Residual-Control   Outer-Iter.   Inner-Iter.     Column Row Layer    Maximum-Head-Change  Column Row Layer    Maximum-Flux-Residual          L2-NORM 
          0                 1           2             1    1     1       0.3795815296E-02       1    1    1         0.1970250486E+00      0.3652677294E+00
          0                 2           2             1    1     1      -0.3692296860E-03       1    1    1        -0.1970252897E-01      0.3652679069E-01
          0                 3           1             1    1     1       0.2514316915E-04       1    1    1         0.1379177391E-02      0.2556876173E-02

    ------------------------------------------------
       NWT REQUIRED            3 OUTER ITERATIONS 
       AND A TOTAL OF          5 INNER ITERATIONS.
    ------------------------------------------------

 NO OUTPUT CONTROL FOR STRESS PERIOD   31   TIME STEP   27
 
 SOLVING FOR HEAD 
                                                   Max.-Head-Change                         Max.-Flux-Residual
  Residual-Control   Outer-Iter.   Inner-Iter.     Column Row Layer    Maximum-Head-Change  Column Row Layer    Maximum-Flux-Residual          L2-NORM 
          0                 1           2             1    1     1       0.3792332562E-02       1    1    1         0.1968438406E+00      0.3648040777E+00
          0                 2           2             1    1     1      -0.3688909095E-03       1    1    1        -0.1968440807E-01      0.3648042492E-01
          0                 3           1             1    1     1       0.2512010014E-04       1    1    1         0.1377908948E-02      0.2553630941E-02

    ------------------------------------------------
       NWT REQUIRED            3 OUTER ITERATIONS 
       AND A TOTAL OF          5 INNER ITERATIONS.
    ------------------------------------------------

 NO OUTPUT CONTROL FOR STRESS PERIOD   31   TIME STEP   28
 
 SOLVING FOR HEAD 
                                                   Max.-Head-Change                         Max.-Flux-Residual
  Residual-Control   Outer-Iter.   Inner-Iter.     Column Row Layer    Maximum-Head-Change  Column Row Layer    Maximum-Flux-Residual          L2-NORM 
          0                 1           2             1    1     1       0.3788861977E-02       1    1    1         0.1966632669E+00      0.3643448836E+00
          0                 2           2             1    1     1      -0.3685533147E-03       1    1    1        -0.1966635060E-01      0.3643450581E-01
          0                 3           1             1    1     1       0.2509711135E-04       1    1    1         0.1376644926E-02      0.2550417088E-02

    ------------------------------------------------
       NWT REQUIRED            3 OUTER ITERATIONS 
       AND A TOTAL OF          5 INNER ITERATIONS.
    ------------------------------------------------

 NO OUTPUT CONTROL FOR STRESS PERIOD   31   TIME STEP   29
 
 SOLVING FOR HEAD 
                                                   Max.-Head-Change                         Max.-Flux-Residual
  Residual-Control   Outer-Iter.   Inner-Iter.     Column Row Layer    Maximum-Head-Change  Column Row Layer    Maximum-Flux-Residual          L2-NORM 
          0                 1           2             1    1     1       0.3785403502E-02       1    1    1         0.1964833231E+00      0.3638899504E+00
          0                 2           2             1    1     1      -0.3682168982E-03       1    1    1        -0.1964835615E-01      0.3638901181E-01
          0                 3           1             1    1     1       0.2507420233E-04       1    1    1         0.1375385301E-02      0.2547232074E-02

    ------------------------------------------------
       NWT REQUIRED            3 OUTER ITERATIONS 
       AND A TOTAL OF          5 INNER ITERATIONS.
    ------------------------------------------------

 NO OUTPUT CONTROL FOR STRESS PERIOD   31   TIME STEP   30



 STREAM LISTING     PERIOD     31   STEP       30

 LAYER ROW COL. STREAM  RCH.  FLOW INTO     FLOW TO   FLOW OUT OF   OVRLND.     DIRECT     STREAM       STREAM     STREAM     STREAM   STREAMBED  STREAMBED
                SEG.NO.  NO.  STRM. RCH.    AQUIFER    STRM. RCH.    RUNOFF     PRECIP       ET          HEAD       DEPTH      WIDTH   CONDCTNC.   GRADIENT

   1    1    1     1     1    6.2248E+01  3.7978E-01   6.1868E+01  0.000E+00  0.000E+00  0.000E+00  1.09460E+03  1.553E+00  1.854E+01  8.342E-02  1.518E+00
   1    2    2     1     2    6.1868E+01  5.8816E-01   6.1280E+01  0.000E+00  0.000E+00  0.000E+00  1.08961E+03  1.547E+00  1.848E+01  1.294E-01  1.516E+00
   1    3    3     1     3    6.1280E+01  5.0162E-01   6.0779E+01  0.000E+00  0.000E+00  0.000E+00  1.08396E+03  1.540E+00  1.841E+01  1.105E-01  1.513E+00
   1    3    4     1     4    6.0779E+01  4.6193E-01   6.0317E+01  0.000E+00  0.000E+00  0.000E+00  1.07894E+03  1.534E+00  1.836E+01  1.019E-01  1.511E+00
   1    4    5     2     1    5.8317E+01  3.9026E-01   5.7926E+01  0.000E+00  0.000E+00  0.000E+00  1.07394E+03  2.003E+00  1.200E+01  7.800E-02  1.668E+00
   1    5    6     2     2    5.7926E+01  2.9977E-01   5.7627E+01  0.000E+00  0.000E+00  0.000E+00  1.06851E+03  1.996E+00  1.200E+01  6.000E-02  1.665E+00
   1    6    6     2     3    5.7627E+01  2.9940E-01   5.7327E+01  0.000E+00  0.000E+00  0.000E+00  1.06378E+03  1.990E+00  1.200E+01  6.000E-02  1.663E+00
   1    7    6     2     4    5.7327E+01  2.9902E-01   5.7028E+01  0.000E+00  0.000E+00  0.000E+00  1.05906E+03  1.984E+00  1.200E+01  6.000E-02  1.661E+00
   1    8    6     2     5    5.7028E+01  2.9865E-01   5.6730E+01  0.000E+00  0.000E+00  0.000E+00  1.05434E+03  1.977E+00  1.200E+01  6.000E-02  1.659E+00
   1    3    5     3     1    2.0000E+00  2.8252E-01   1.7175E+00  0.000E+00  0.000E+00  0.000E+00  1.07555E+03  1.909E+00  9.636E+00  7.227E-02  1.955E+00
   1    3    6     3     2    1.7175E+00  2.4905E-01   1.4684E+00  0.000E+00  0.000E+00  0.000E+00  1.07264E+03  1.727E+00  8.909E+00  6.682E-02  1.864E+00
   1    3    7     3     3    1.4684E+00  1.9718E-01   1.2712E+00  0.000E+00  0.000E+00  0.000E+00  1.06987E+03  1.555E+00  8.218E+00  5.547E-02  1.777E+00
   1    4    8     3     4    1.2712E+00  2.2567E-01   1.0456E+00  0.000E+00  0.000E+00  0.000E+00  1.06682E+03  1.364E+00  7.455E+00  6.709E-02  1.682E+00
   1    5    8     3     5    1.0456E+00  1.5790E-01   8.8768E-01  0.000E+00  0.000E+00  0.000E+00  1.06362E+03  1.164E+00  6.655E+00  4.991E-02  1.582E+00
   1    6    8     3     6    8.8768E-01  5.5980E-02   8.3170E-01  0.000E+00  0.000E+00  0.000E+00  1.06158E+03  1.036E+00  6.145E+00  1.844E-02  1.518E+00
   1    5   10     4     1    1.0000E+01  9.0919E-02   9.9091E+00  0.000E+00  0.000E+00  0.000E+00  1.07836E+03  6.368E-01  1.000E+01  2.500E-02  1.212E+00
   1    5    9     4     2    9.9091E+00  1.8158E-01   9.7275E+00  0.000E+00  0.000E+00  0.000E+00  1.07154E+03  6.315E-01  1.000E+01  5.000E-02  1.211E+00
   1    6    8     4     3    9.7275E+00  1.2689E-01   9.6006E+00  0.000E+00  0.000E+00  0.000E+00  1.06381E+03  6.256E-01  1.000E+01  3.500E-02  1.209E+00
   1    6    8     5     1    1.0432E+01  2.2686E-01   1.0205E+01  0.000E+00  0.000E+00  0.000E+00  1.05868E+03  6.790E-01  1.542E+01  6.166E-02  1.226E+00
   1    7    7     5     2    1.0205E+01  2.7894E-01   9.9265E+00  0.000E+00  0.000E+00  0.000E+00  1.05417E+03  6.732E-01  1.519E+01  7.594E-02  1.224E+00
   1    8    7     5     3    9.9265E+00  1.9221E-01   9.7343E+00  0.000E+00  0.000E+00  0.000E+00  1.04992E+03  6.676E-01  1.497E+01  5.241E-02  1.223E+00
   1    8    6     5     4    9.7343E+00  1.3577E-01   9.5985E+00  0.000E+00  0.000E+00  0.000E+00  1.04691E+03  6.637E-01  1.482E+01  3.706E-02  1.221E+00
   1    9    6     6     1    9.5985E+00  2.2097E-01   9.3776E+00  0.000E+00  0.000E+00  0.000E+00  1.04341E+03  6.828E-01  1.200E+01  6.000E-02  1.228E+00
   1   10    7     6     2    9.3776E+00  2.2039E-01   9.1572E+00  0.000E+00  0.000E+00  0.000E+00  1.03885E+03  6.732E-01  1.200E+01  6.000E-02  1.224E+00
   1   11    7     6     3    9.1572E+00  2.1981E-01   8.9374E+00  0.000E+00  0.000E+00  0.000E+00  1.03430E+03  6.636E-01  1.200E+01  6.000E-02  1.221E+00
   1   12    7     6     4    8.9374E+00  2.1923E-01   8.7181E+00  0.000E+00  0.000E+00  0.000E+00  1.02974E+03  6.539E-01  1.200E+01  6.000E-02  1.218E+00
   1   13    7     6     5    8.7181E+00 -1.1038E-01   8.8285E+00  0.000E+00  0.000E+00  0.000E+00  1.02656E+03  6.514E-01  1.200E+01  2.400E-01 -1.533E-01
   1   14    9     7     1    1.5000E+02  1.3446E+00   1.4866E+02  0.000E+00  0.000E+00  0.000E+00  1.03987E+03  2.288E+00  5.529E+01  5.593E-01  8.013E-01
   1   13    8     7     2    1.4866E+02  1.8498E+00   1.4681E+02  0.000E+00  0.000E+00  0.000E+00  1.03478E+03  2.279E+00  5.526E+01  6.148E-01  1.003E+00
   1   13    7     7     3    1.4681E+02  1.4906E+00   1.4532E+02  0.000E+00  0.000E+00  0.000E+00  1.02969E+03  2.270E+00  5.522E+01  5.584E-01  8.897E-01
   1   13    6     8     1    1.5414E+02  8.4264E-01   1.5330E+02  0.000E+00  0.000E+00  0.000E+00  1.02472E+03  2.843E+00  4.122E+01  4.201E-01  6.687E-01
   1   13    5     8     2    1.5330E+02  1.1238E-01   1.5319E+02  0.000E+00  0.000E+00  0.000E+00  1.01846E+03  2.840E+00  4.117E+01  4.196E-01  8.928E-02
   1   13    4     8     3    1.5319E+02 -2.6392E+00   1.5583E+02  0.000E+00  0.000E+00  0.000E+00  1.01222E+03  2.848E+00  4.130E+01  4.209E+00 -2.090E-01
   1   13    3     8     4    1.5583E+02 -3.7273E+00   1.5956E+02  0.000E+00  0.000E+00  0.000E+00  1.00600E+03  2.870E+00  4.162E+01  4.241E+00 -2.930E-01
   1   13    2     8     5    1.5956E+02 -2.5932E+00   1.6215E+02  0.000E+00  0.000E+00  0.000E+00  9.99767E+02  2.892E+00  4.193E+01  4.273E+00 -2.023E-01
   1   13    1     8     6    1.6215E+02 -1.9793E+00   1.6413E+02  0.000E+00  0.000E+00  0.000E+00  9.94782E+02  2.907E+00  4.215E+01  2.577E+00 -2.560E-01
   1    8    6     9     1    5.6730E+01  0.0000E+00   5.6730E+01  0.000E+00  0.000E+00  0.000E+00  1.08517E+03  6.420E+00  4.000E+00  0.000E+00  3.140E+00
   1    8    5     9     2    5.6730E+01  0.0000E+00   5.6730E+01  0.000E+00  0.000E+00  0.000E+00  1.08467E+03  6.420E+00  4.000E+00  0.000E+00  3.140E+00





UNSATURATED ZONE PACKAGE VOLUMETRIC BUDGET FOR  TIME STEP    30 STRESS PERIOD   31
  ------------------------------------------------------------------------------



     CUMULATIVE VOLUMES      L**3       RATES FOR THIS TIME STEP      L**3/T
     ------------------                 ------------------------

           IN:                                      IN:
           ---                                      ---
        INFILTRATION =    66940970.1823          INFILTRATION =           0.8475

          OUT:                                     OUT:
          ----                                     ----
              UZF ET =    66134601.1357                UZF ET =           0.8475
        UZF RECHARGE =       73224.0000          UZF RECHARGE =       0.0000E+00

            IN - OUT =      733145.0466              IN - OUT =       0.0000E+00

          STORAGE:                                 STORAGE:
          --------                                 --------
      STORAGE CHANGE =      733145.3167        STORAGE CHANGE =      -1.0789E-15

 PERCENT DISCREPANCY IS DIFFERENCE BETWEEN IN-OUT MINUS CHANGE IN STORAGE
 DIVIDED BY THE AVERAGE OF IN AND OUT TIMES 100

 PERCENT DISCREPANCY =           0.00     PERCENT DISCREPANCY =           0.00






1
  VOLUMETRIC BUDGET FOR ENTIRE MODEL AT END OF TIME STEP   30, STRESS PERIOD  31
  ------------------------------------------------------------------------------

     CUMULATIVE VOLUMES      L**3       RATES FOR THIS TIME STEP      L**3/T
     ------------------                 ------------------------

           IN:                                      IN:
           ---                                      ---
             STORAGE     =    26731222.0000               STORAGE     =           0.1205
       CONSTANT HEAD     =           0.0000         CONSTANT HEAD     =           0.0000
     HEAD DEP BOUNDS     =    22597582.0000       HEAD DEP BOUNDS     =           0.2864
      STREAM LEAKAGE     =   926577920.0000        STREAM LEAKAGE     =          12.4404
        UZF RECHARGE     =       73223.9531          UZF RECHARGE     =           0.0000
               GW ET     =           0.0000                 GW ET     =           0.0000
     SURFACE LEAKAGE     =           0.0000       SURFACE LEAKAGE     =           0.0000

                TOTAL IN =   975979968.0000                  TOTAL IN =          12.8473

          OUT:                                     OUT:
          ----                                     ----
             STORAGE     =    78455592.0000               STORAGE     =           1.5113
       CONSTANT HEAD     =           0.0000         CONSTANT HEAD     =           0.0000
     HEAD DEP BOUNDS     =    22663036.0000       HEAD DEP BOUNDS     =           0.2869
      STREAM LEAKAGE     =   874875648.0000        STREAM LEAKAGE     =          11.0494
        UZF RECHARGE     =           0.0000          UZF RECHARGE     =           0.0000
               GW ET     =           0.0000                 GW ET     =           0.0000
     SURFACE LEAKAGE     =           0.0000       SURFACE LEAKAGE     =           0.0000

               TOTAL OUT =   975994240.0000                 TOTAL OUT =          12.8476

                IN - OUT =      -14272.0000                  IN - OUT =      -3.9482E-04

     PERCENT DISCREPANCY =          -0.00         PERCENT DISCREPANCY =          -0.00






         TIME SUMMARY AT END OF TIME STEP   30 IN STRESS PERIOD   31
                    SECONDS     MINUTES      HOURS       DAYS        YEARS
                    -----------------------------------------------------------
   TIME STEP LENGTH  87667.      1461.1      24.352      1.0147     2.77799E-03
 STRESS PERIOD TIME 2.63000E+06  43833.      730.56      30.440     8.33397E-02
         TOTAL TIME 7.89864E+07 1.31644E+06  21941.      914.20      2.5029    
1
1
                            STRESS PERIOD NO.   32, LENGTH =   2630000.    
                            -----------------------------------------------

                              NUMBER OF TIME STEPS =    30

                               MULTIPLIER FOR DELT =     1.000

                            INITIAL TIME STEP SIZE =   87666.66    

 REUSING NON-PARAMETER GHB CELLS FROM LAST STRESS PERIOD

      2 GHB CELLS

 REUSING STREAM SEGMENT DATA FROM LAST STRESS PERIOD



            AREAL INFILTRATION RATE
 READING ON UNIT   19 WITH FORMAT: (FREE)              

            1           2           3           4           5           6           7           8           9          10
 ........................................................................................................................
   1   1.0000E-10  2.0000E-10   0.000       0.000       0.000       0.000       0.000       0.000       0.000       0.000    
   2   2.0000E-10  1.0000E-10  2.0000E-10   0.000       0.000      8.0000E-10  8.0000E-10  5.0000E-10   0.000       0.000    
   3    0.000      5.0000E-10  1.0000E-10  1.0000E-10  8.0000E-10  8.0000E-10  5.0000E-10  5.0000E-10   0.000       0.000    
   4   8.0000E-10  5.0000E-10  1.0000E-10  1.0000E-10  1.0000E-10  1.0000E-10  1.0000E-10  1.0000E-10  2.0000E-10   0.000    
   5   8.0000E-10  5.0000E-10  1.0000E-10  1.0000E-10  1.0000E-10  1.0000E-10  1.0000E-10  1.0000E-10  1.0000E-10  1.0000E-10
   6   8.0000E-10  5.0000E-10  5.0000E-10  2.0000E-10  2.0000E-10  1.0000E-10  1.0000E-10  1.0000E-10  1.0000E-10  5.0000E-10
   7   8.0000E-10  5.0000E-10  5.0000E-10  2.0000E-10  2.0000E-10  1.0000E-10  1.0000E-10  2.0000E-10  2.0000E-10   0.000    
   8    0.000      5.0000E-10  5.0000E-10  2.0000E-10  2.0000E-10  1.0000E-10  1.0000E-10  2.0000E-10  5.0000E-10   0.000    
   9    0.000      5.0000E-10  5.0000E-10  2.0000E-10  2.0000E-10  1.0000E-10  1.0000E-10  2.0000E-10  5.0000E-10   0.000    
  10    0.000      5.0000E-10  5.0000E-10  2.0000E-10  2.0000E-10  1.0000E-10  1.0000E-10  2.0000E-10  5.0000E-10  8.0000E-10
  11    0.000      1.0000E-10  1.0000E-10  1.0000E-10  1.0000E-10  1.0000E-10  1.0000E-10  2.0000E-10  5.0000E-10   0.000    
  12   1.0000E-10  1.0000E-10  1.0000E-10  1.0000E-10  1.0000E-10  1.0000E-10  1.0000E-10  1.0000E-10  2.0000E-10   0.000    
  13   1.0000E-10  1.0000E-10  2.0000E-10  2.0000E-10  2.0000E-10  2.0000E-10  2.0000E-10  1.0000E-10  1.0000E-10   0.000    
  14    0.000      2.0000E-10  5.0000E-10  5.0000E-10  5.0000E-10  5.0000E-10  5.0000E-10  2.0000E-10  1.0000E-10   0.000    
  15    0.000       0.000      8.0000E-10  8.0000E-10  8.0000E-10  8.0000E-10   0.000       0.000       0.000       0.000    

                  ET RATE =  4.000000E-07

 USING ET EXTINCTION DEPTH FROM PREVIOUS STRESS PERIOD. CURRENT PERIOD IS:      32

 USING EXTINCTION WATER CONTENT FROM PREVIOUS STRESS PERIOD. CURRENT PERIOD IS:      32

 USING AIR ENTRY PRESSURE FROM PREVIOUS STRESS PERIOD. CURRENT PERIOD IS:      32

 USING ROOT PRESSURE HEAD FROM PREVIOUS STRESS PERIOD. CURRENT PERIOD IS:      32

 USING ROOT ACTIVITY FROM PREVIOUS STRESS PERIOD. CURRENT PERIOD IS:      32
 
 SOLVING FOR HEAD 
                                                   Max.-Head-Change                         Max.-Flux-Residual
  Residual-Control   Outer-Iter.   Inner-Iter.     Column Row Layer    Maximum-Head-Change  Column Row Layer    Maximum-Flux-Residual          L2-NORM 
          0                 1           2             1    1     1       0.3440514436E-02       1    1    1         0.1785673111E+00      0.3267333916E+00
          0                 2           2             1    1     1      -0.3346685095E-03       1    1    1        -0.1785674922E-01      0.3267335004E-01
          0                 3           1             1    1     1       0.2278968233E-04       1    1    1         0.1249972816E-02      0.2287134806E-02

    ------------------------------------------------
       NWT REQUIRED            3 OUTER ITERATIONS 
       AND A TOTAL OF          5 INNER ITERATIONS.
    ------------------------------------------------

 NO OUTPUT CONTROL FOR STRESS PERIOD   32   TIME STEP    1
 
 SOLVING FOR HEAD 
                                                   Max.-Head-Change                         Max.-Flux-Residual
  Residual-Control   Outer-Iter.   Inner-Iter.     Column Row Layer    Maximum-Head-Change  Column Row Layer    Maximum-Flux-Residual          L2-NORM 
          0                 1           2             1    1     1       0.3374113545E-02       1    1    1         0.1751178129E+00      0.3199340274E+00
          0                 2           2             1    1     1      -0.3282094978E-03       1    1    1        -0.1751179836E-01      0.3199341329E-01
          0                 3           1             1    1     1       0.2234984801E-04       1    1    1         0.1225826267E-02      0.2239539371E-02

    ------------------------------------------------
       NWT REQUIRED            3 OUTER ITERATIONS 
       AND A TOTAL OF          5 INNER ITERATIONS.
    ------------------------------------------------

 NO OUTPUT CONTROL FOR STRESS PERIOD   32   TIME STEP    2
 
 SOLVING FOR HEAD 
                                                   Max.-Head-Change                         Max.-Flux-Residual
  Residual-Control   Outer-Iter.   Inner-Iter.     Column Row Layer    Maximum-Head-Change  Column Row Layer    Maximum-Flux-Residual          L2-NORM 
          0                 1           2             1    1     1       0.3371374667E-02       1    1    1         0.1749753371E+00      0.3196474631E+00
          0                 2           2             1    1     1      -0.3279430786E-03       1    1    1        -0.1749755071E-01      0.3196475517E-01
          0                 3           1             1    1     1       0.2233170582E-04       1    1    1         0.1224828935E-02      0.2237533605E-02

    ------------------------------------------------
       NWT REQUIRED            3 OUTER ITERATIONS 
       AND A TOTAL OF          5 INNER ITERATIONS.
    ------------------------------------------------

 NO OUTPUT CONTROL FOR STRESS PERIOD   32   TIME STEP    3
 
 SOLVING FOR HEAD 
                                                   Max.-Head-Change                         Max.-Flux-Residual
  Residual-Control   Outer-Iter.   Inner-Iter.     Column Row Layer    Maximum-Head-Change  Column Row Layer    Maximum-Flux-Residual          L2-NORM 
          0                 1           2             1    1     1       0.3368644802E-02       1    1    1         0.1748333310E+00      0.3193656095E+00
          0                 2           2             1    1     1      -0.3276775363E-03       1    1    1        -0.1748335005E-01      0.3193656830E-01
          0                 3           1             1    1     1       0.2231362304E-04       1    1    1         0.1223834872E-02      0.2235560642E-02

    ------------------------------------------------
       NWT REQUIRED            3 OUTER ITERATIONS 
       AND A TOTAL OF          5 INNER ITERATIONS.
    ------------------------------------------------

 NO OUTPUT CONTROL FOR STRESS PERIOD   32   TIME STEP    4
 
 SOLVING FOR HEAD 
                                                   Max.-Head-Change                         Max.-Flux-Residual
  Residual-Control   Outer-Iter.   Inner-Iter.     Column Row Layer    Maximum-Head-Change  Column Row Layer    Maximum-Flux-Residual          L2-NORM 
          0                 1           2             1    1     1       0.3365923920E-02       1    1    1         0.1746917922E+00      0.3190946420E+00
          0                 2           2             1    1     1      -0.3274128676E-03       1    1    1        -0.1746919610E-01      0.3190947355E-01
          0                 3           1             1    1     1       0.2229560013E-04       1    1    1         0.1222844102E-02      0.2233664159E-02

    ------------------------------------------------
       NWT REQUIRED            3 OUTER ITERATIONS 
       AND A TOTAL OF          5 INNER ITERATIONS.
    ------------------------------------------------

 NO OUTPUT CONTROL FOR STRESS PERIOD   32   TIME STEP    5
 
 SOLVING FOR HEAD 
                                                   Max.-Head-Change                         Max.-Flux-Residual
  Residual-Control   Outer-Iter.   Inner-Iter.     Column Row Layer    Maximum-Head-Change  Column Row Layer    Maximum-Flux-Residual          L2-NORM 
          0                 1           2             1    1     1       0.3363235071E-02       1    1    1         0.1745519189E+00      0.3188238725E+00
          0                 2           2             1    1     1      -0.3271513147E-03       1    1    1        -0.1745520869E-01      0.3188239814E-01
          0                 3           1             1    1     1       0.2227778928E-04       1    1    1         0.1221864979E-02      0.2231768805E-02

    ------------------------------------------------
       NWT REQUIRED            3 OUTER ITERATIONS 
       AND A TOTAL OF          5 INNER ITERATIONS.
    ------------------------------------------------

 NO OUTPUT CONTROL FOR STRESS PERIOD   32   TIME STEP    6
 
 SOLVING FOR HEAD 
                                                   Max.-Head-Change                         Max.-Flux-Residual
  Residual-Control   Outer-Iter.   Inner-Iter.     Column Row Layer    Maximum-Head-Change  Column Row Layer    Maximum-Flux-Residual          L2-NORM 
          0                 1           2             1    1     1       0.3360531993E-02       1    1    1         0.1744113072E+00      0.3185494942E+00
          0                 2           2             1    1     1      -0.3268883778E-03       1    1    1        -0.1744114746E-01      0.3185495845E-01
          0                 3           1             1    1     1       0.2225988400E-04       1    1    1         0.1220880683E-02      0.2229848243E-02

    ------------------------------------------------
       NWT REQUIRED            3 OUTER ITERATIONS 
       AND A TOTAL OF          5 INNER ITERATIONS.
    ------------------------------------------------

 NO OUTPUT CONTROL FOR STRESS PERIOD   32   TIME STEP    7
 
 SOLVING FOR HEAD 
                                                   Max.-Head-Change                         Max.-Flux-Residual
  Residual-Control   Outer-Iter.   Inner-Iter.     Column Row Layer    Maximum-Head-Change  Column Row Layer    Maximum-Flux-Residual          L2-NORM 
          0                 1           2             1    1     1       0.3357837760E-02       1    1    1         0.1742711574E+00      0.3182886937E+00
          0                 2           2             1    1     1      -0.3266263018E-03       1    1    1        -0.1742713241E-01      0.3182887870E-01
          0                 3           1             1    1     1       0.2224203813E-04       1    1    1         0.1219899653E-02      0.2228022496E-02

    ------------------------------------------------
       NWT REQUIRED            3 OUTER ITERATIONS 
       AND A TOTAL OF          5 INNER ITERATIONS.
    ------------------------------------------------

 NO OUTPUT CONTROL FOR STRESS PERIOD   32   TIME STEP    8
 
 SOLVING FOR HEAD 
                                                   Max.-Head-Change                         Max.-Flux-Residual
  Residual-Control   Outer-Iter.   Inner-Iter.     Column Row Layer    Maximum-Head-Change  Column Row Layer    Maximum-Flux-Residual          L2-NORM 
          0                 1           2             1    1     1       0.3355152378E-02       1    1    1         0.1741314661E+00      0.3180296729E+00
          0                 2           2             1    1     1      -0.3263650861E-03       1    1    1        -0.1741316323E-01      0.3180297667E-01
          0                 3           1             1    1     1       0.2222425000E-04       1    1    1         0.1218921787E-02      0.2226210605E-02

    ------------------------------------------------
       NWT REQUIRED            3 OUTER ITERATIONS 
       AND A TOTAL OF          5 INNER ITERATIONS.
    ------------------------------------------------

 NO OUTPUT CONTROL FOR STRESS PERIOD   32   TIME STEP    9
 
 SOLVING FOR HEAD 
                                                   Max.-Head-Change                         Max.-Flux-Residual
  Residual-Control   Outer-Iter.   Inner-Iter.     Column Row Layer    Maximum-Head-Change  Column Row Layer    Maximum-Flux-Residual          L2-NORM 
          0                 1           2             1    1     1       0.3352475764E-02       1    1    1         0.1739922338E+00      0.3177764944E+00
          0                 2           2             1    1     1      -0.3261047237E-03       1    1    1        -0.1739923992E-01      0.3177765842E-01
          0                 3           1             1    1     1       0.2220652033E-04       1    1    1         0.1217947170E-02      0.2224436824E-02

    ------------------------------------------------
       NWT REQUIRED            3 OUTER ITERATIONS 
       AND A TOTAL OF          5 INNER ITERATIONS.
    ------------------------------------------------

 NO OUTPUT CONTROL FOR STRESS PERIOD   32   TIME STEP   10
 
 SOLVING FOR HEAD 
                                                   Max.-Head-Change                         Max.-Flux-Residual
  Residual-Control   Outer-Iter.   Inner-Iter.     Column Row Layer    Maximum-Head-Change  Column Row Layer    Maximum-Flux-Residual          L2-NORM 
          0                 1           2             1    1     1       0.3349807928E-02       1    1    1         0.1738534561E+00      0.3175222816E+00
          0                 2           2             1    1     1      -0.3258452149E-03       1    1    1        -0.1738536210E-01      0.3175223752E-01
          0                 3           1             1    1     1       0.2218884865E-04       1    1    1         0.1216975715E-02      0.2222657139E-02

    ------------------------------------------------
       NWT REQUIRED            3 OUTER ITERATIONS 
       AND A TOTAL OF          5 INNER ITERATIONS.
    ------------------------------------------------

 NO OUTPUT CONTROL FOR STRESS PERIOD   32   TIME STEP   11
 
 SOLVING FOR HEAD 
                                                   Max.-Head-Change                         Max.-Flux-Residual
  Residual-Control   Outer-Iter.   Inner-Iter.     Column Row Layer    Maximum-Head-Change  Column Row Layer    Maximum-Flux-Residual          L2-NORM 
          0                 1           2             1    1     1       0.3347148786E-02       1    1    1         0.1737151334E+00      0.3172739645E+00
          0                 2           2             1    1     1      -0.3255865523E-03       1    1    1        -0.1737152979E-01      0.3172740577E-01
          0                 3           1             1    1     1       0.2217123448E-04       1    1    1         0.1216007449E-02      0.2220918968E-02

    ------------------------------------------------
       NWT REQUIRED            3 OUTER ITERATIONS 
       AND A TOTAL OF          5 INNER ITERATIONS.
    ------------------------------------------------

 NO OUTPUT CONTROL FOR STRESS PERIOD   32   TIME STEP   12
 
 SOLVING FOR HEAD 
                                                   Max.-Head-Change                         Max.-Flux-Residual
  Residual-Control   Outer-Iter.   Inner-Iter.     Column Row Layer    Maximum-Head-Change  Column Row Layer    Maximum-Flux-Residual          L2-NORM 
          0                 1           2             1    1     1       0.3344475239E-02       1    1    1         0.1735760613E+00      0.3170236377E+00
          0                 2           2             1    1     1      -0.3253264881E-03       1    1    1        -0.1735762251E-01      0.3170237268E-01
          0                 3           1             1    1     1       0.2215352540E-04       1    1    1         0.1215033949E-02      0.2219166510E-02

    ------------------------------------------------
       NWT REQUIRED            3 OUTER ITERATIONS 
       AND A TOTAL OF          5 INNER ITERATIONS.
    ------------------------------------------------

 NO OUTPUT CONTROL FOR STRESS PERIOD   32   TIME STEP   13
 
 SOLVING FOR HEAD 
                                                   Max.-Head-Change                         Max.-Flux-Residual
  Residual-Control   Outer-Iter.   Inner-Iter.     Column Row Layer    Maximum-Head-Change  Column Row Layer    Maximum-Flux-Residual          L2-NORM 
          0                 1           2             1    1     1       0.3341833490E-02       1    1    1         0.1734386429E+00      0.3167808933E+00
          0                 2           2             1    1     1      -0.3250695169E-03       1    1    1        -0.1734388060E-01      0.3167810240E-01
          0                 3           1             1    1     1       0.2213602673E-04       1    1    1         0.1214072019E-02      0.2217468661E-02

    ------------------------------------------------
       NWT REQUIRED            3 OUTER ITERATIONS 
       AND A TOTAL OF          5 INNER ITERATIONS.
    ------------------------------------------------

 NO OUTPUT CONTROL FOR STRESS PERIOD   32   TIME STEP   14
 
 SOLVING FOR HEAD 
                                                   Max.-Head-Change                         Max.-Flux-Residual
  Residual-Control   Outer-Iter.   Inner-Iter.     Column Row Layer    Maximum-Head-Change  Column Row Layer    Maximum-Flux-Residual          L2-NORM 
          0                 1           2             1    1     1       0.3339200344E-02       1    1    1         0.1733016729E+00      0.3165393064E+00
          0                 2           2             1    1     1      -0.3248133826E-03       1    1    1        -0.1733018353E-01      0.3165393969E-01
          0                 3           1             1    1     1       0.2211858509E-04       1    1    1         0.1213113221E-02      0.2215776625E-02

    ------------------------------------------------
       NWT REQUIRED            3 OUTER ITERATIONS 
       AND A TOTAL OF          5 INNER ITERATIONS.
    ------------------------------------------------

 NO OUTPUT CONTROL FOR STRESS PERIOD   32   TIME STEP   15
 
 SOLVING FOR HEAD 
                                                   Max.-Head-Change                         Max.-Flux-Residual
  Residual-Control   Outer-Iter.   Inner-Iter.     Column Row Layer    Maximum-Head-Change  Column Row Layer    Maximum-Flux-Residual          L2-NORM 
          0                 1           2             1    1     1       0.3336575775E-02       1    1    1         0.1731651490E+00      0.3163019417E+00
          0                 2           2             1    1     1      -0.3245580830E-03       1    1    1        -0.1731653110E-01      0.3163020301E-01
          0                 3           1             1    1     1       0.2210120002E-04       1    1    1         0.1212157546E-02      0.2214114566E-02

    ------------------------------------------------
       NWT REQUIRED            3 OUTER ITERATIONS 
       AND A TOTAL OF          5 INNER ITERATIONS.
    ------------------------------------------------

 NO OUTPUT CONTROL FOR STRESS PERIOD   32   TIME STEP   16
 
 SOLVING FOR HEAD 
                                                   Max.-Head-Change                         Max.-Flux-Residual
  Residual-Control   Outer-Iter.   Inner-Iter.     Column Row Layer    Maximum-Head-Change  Column Row Layer    Maximum-Flux-Residual          L2-NORM 
          0                 1           2             1    1     1       0.3333959763E-02       1    1    1         0.1730290697E+00      0.3160576490E+00
          0                 2           2             1    1     1      -0.3243036152E-03       1    1    1        -0.1730292311E-01      0.3160577317E-01
          0                 3           1             1    1     1       0.2208387128E-04       1    1    1         0.1211204978E-02      0.2212405068E-02

    ------------------------------------------------
       NWT REQUIRED            3 OUTER ITERATIONS 
       AND A TOTAL OF          5 INNER ITERATIONS.
    ------------------------------------------------

 NO OUTPUT CONTROL FOR STRESS PERIOD   32   TIME STEP   17
 
 SOLVING FOR HEAD 
                                                   Max.-Head-Change                         Max.-Flux-Residual
  Residual-Control   Outer-Iter.   Inner-Iter.     Column Row Layer    Maximum-Head-Change  Column Row Layer    Maximum-Flux-Residual          L2-NORM 
          0                 1           2             1    1     1       0.3331352256E-02       1    1    1         0.1728934342E+00      0.3158230640E+00
          0                 2           2             1    1     1      -0.3240499748E-03       1    1    1        -0.1728935949E-01      0.3158231582E-01
          0                 3           1             1    1     1       0.2206659933E-04       1    1    1         0.1210255522E-02      0.2210762774E-02

    ------------------------------------------------
       NWT REQUIRED            3 OUTER ITERATIONS 
       AND A TOTAL OF          5 INNER ITERATIONS.
    ------------------------------------------------

 NO OUTPUT CONTROL FOR STRESS PERIOD   32   TIME STEP   18
 
 SOLVING FOR HEAD 
                                                   Max.-Head-Change                         Max.-Flux-Residual
  Residual-Control   Outer-Iter.   Inner-Iter.     Column Row Layer    Maximum-Head-Change  Column Row Layer    Maximum-Flux-Residual          L2-NORM 
          0                 1           2             1    1     1       0.3328753208E-02       1    1    1         0.1727582395E+00      0.3155903150E+00
          0                 2           2             1    1     1      -0.3237971575E-03       1    1    1        -0.1727583995E-01      0.3155903947E-01
          0                 3           1             1    1     1       0.2204938372E-04       1    1    1         0.1209309179E-02      0.2209134757E-02

    ------------------------------------------------
       NWT REQUIRED            3 OUTER ITERATIONS 
       AND A TOTAL OF          5 INNER ITERATIONS.
    ------------------------------------------------

 NO OUTPUT CONTROL FOR STRESS PERIOD   32   TIME STEP   19
 
 SOLVING FOR HEAD 
                                                   Max.-Head-Change                         Max.-Flux-Residual
  Residual-Control   Outer-Iter.   Inner-Iter.     Column Row Layer    Maximum-Head-Change  Column Row Layer    Maximum-Flux-Residual          L2-NORM 
          0                 1           2             1    1     1       0.3326139471E-02       1    1    1         0.1726222825E+00      0.3153504318E+00
          0                 2           2             1    1     1      -0.3235429113E-03       1    1    1        -0.1726224420E-01      0.3153505248E-01
          0                 3           1             1    1     1       0.2203207012E-04       1    1    1         0.1208357457E-02      0.2207454624E-02

    ------------------------------------------------
       NWT REQUIRED            3 OUTER ITERATIONS 
       AND A TOTAL OF          5 INNER ITERATIONS.
    ------------------------------------------------

 NO OUTPUT CONTROL FOR STRESS PERIOD   32   TIME STEP   20
 
 SOLVING FOR HEAD 
                                                   Max.-Head-Change                         Max.-Flux-Residual
  Residual-Control   Outer-Iter.   Inner-Iter.     Column Row Layer    Maximum-Head-Change  Column Row Layer    Maximum-Flux-Residual          L2-NORM 
          0                 1           2             1    1     1       0.3323557314E-02       1    1    1         0.1724879659E+00      0.3151268101E+00
          0                 2           2             1    1     1      -0.3232917370E-03       1    1    1        -0.1724881248E-01      0.3151269020E-01
          0                 3           1             1    1     1       0.2201496646E-04       1    1    1         0.1207417248E-02      0.2205895284E-02

    ------------------------------------------------
       NWT REQUIRED            3 OUTER ITERATIONS 
       AND A TOTAL OF          5 INNER ITERATIONS.
    ------------------------------------------------

 NO OUTPUT CONTROL FOR STRESS PERIOD   32   TIME STEP   21
 
 SOLVING FOR HEAD 
                                                   Max.-Head-Change                         Max.-Flux-Residual
  Residual-Control   Outer-Iter.   Inner-Iter.     Column Row Layer    Maximum-Head-Change  Column Row Layer    Maximum-Flux-Residual          L2-NORM 
          0                 1           2             1    1     1       0.3320983537E-02       1    1    1         0.1723540857E+00      0.3148960996E+00
          0                 2           2             1    1     1      -0.3230413778E-03       1    1    1        -0.1723542441E-01      0.3148961862E-01
          0                 3           1             1    1     1       0.2199791793E-04       1    1    1         0.1206480084E-02      0.2204274115E-02

    ------------------------------------------------
       NWT REQUIRED            3 OUTER ITERATIONS 
       AND A TOTAL OF          5 INNER ITERATIONS.
    ------------------------------------------------

 NO OUTPUT CONTROL FOR STRESS PERIOD   32   TIME STEP   22
 
 SOLVING FOR HEAD 
                                                   Max.-Head-Change                         Max.-Flux-Residual
  Residual-Control   Outer-Iter.   Inner-Iter.     Column Row Layer    Maximum-Head-Change  Column Row Layer    Maximum-Flux-Residual          L2-NORM 
          0                 1           2             1    1     1       0.3318418089E-02       1    1    1         0.1722206400E+00      0.3146669473E+00
          0                 2           2             1    1     1      -0.3227918289E-03       1    1    1        -0.1722207977E-01      0.3146670337E-01
          0                 3           1             1    1     1       0.2198092479E-04       1    1    1         0.1205545969E-02      0.2202670494E-02

    ------------------------------------------------
       NWT REQUIRED            3 OUTER ITERATIONS 
       AND A TOTAL OF          5 INNER ITERATIONS.
    ------------------------------------------------

 NO OUTPUT CONTROL FOR STRESS PERIOD   32   TIME STEP   23
 
 SOLVING FOR HEAD 
                                                   Max.-Head-Change                         Max.-Flux-Residual
  Residual-Control   Outer-Iter.   Inner-Iter.     Column Row Layer    Maximum-Head-Change  Column Row Layer    Maximum-Flux-Residual          L2-NORM 
          0                 1           2             1    1     1       0.3315837794E-02       1    1    1         0.1720864246E+00      0.3144377081E+00
          0                 2           2             1    1     1      -0.3225408355E-03       1    1    1        -0.1720865817E-01      0.3144377985E-01
          0                 3           1             1    1     1       0.2196383272E-04       1    1    1         0.1204606447E-02      0.2201066258E-02

    ------------------------------------------------
       NWT REQUIRED            3 OUTER ITERATIONS 
       AND A TOTAL OF          5 INNER ITERATIONS.
    ------------------------------------------------

 NO OUTPUT CONTROL FOR STRESS PERIOD   32   TIME STEP   24
 
 SOLVING FOR HEAD 
                                                   Max.-Head-Change                         Max.-Flux-Residual
  Residual-Control   Outer-Iter.   Inner-Iter.     Column Row Layer    Maximum-Head-Change  Column Row Layer    Maximum-Flux-Residual          L2-NORM 
          0                 1           2             1    1     1       0.3313288948E-02       1    1    1         0.1719538424E+00      0.3142185838E+00
          0                 2           2             1    1     1      -0.3222929013E-03       1    1    1        -0.1719539989E-01      0.3142186691E-01
          0                 3           1             1    1     1       0.2194694940E-04       1    1    1         0.1203678367E-02      0.2199531834E-02

    ------------------------------------------------
       NWT REQUIRED            3 OUTER ITERATIONS 
       AND A TOTAL OF          5 INNER ITERATIONS.
    ------------------------------------------------

 NO OUTPUT CONTROL FOR STRESS PERIOD   32   TIME STEP   25
 
 SOLVING FOR HEAD 
                                                   Max.-Head-Change                         Max.-Flux-Residual
  Residual-Control   Outer-Iter.   Inner-Iter.     Column Row Layer    Maximum-Head-Change  Column Row Layer    Maximum-Flux-Residual          L2-NORM 
          0                 1           2             1    1     1       0.3310748326E-02       1    1    1         0.1718216893E+00      0.3139913643E+00
          0                 2           2             1    1     1      -0.3220457672E-03       1    1    1        -0.1718218453E-01      0.3139914456E-01
          0                 3           1             1    1     1       0.2193012051E-04       1    1    1         0.1202753291E-02      0.2197940771E-02

    ------------------------------------------------
       NWT REQUIRED            3 OUTER ITERATIONS 
       AND A TOTAL OF          5 INNER ITERATIONS.
    ------------------------------------------------

 NO OUTPUT CONTROL FOR STRESS PERIOD   32   TIME STEP   26
 
 SOLVING FOR HEAD 
                                                   Max.-Head-Change                         Max.-Flux-Residual
  Residual-Control   Outer-Iter.   Inner-Iter.     Column Row Layer    Maximum-Head-Change  Column Row Layer    Maximum-Flux-Residual          L2-NORM 
          0                 1           2             1    1     1       0.3308215912E-02       1    1    1         0.1716899626E+00      0.3137699989E+00
          0                 2           2             1    1     1      -0.3217994311E-03       1    1    1        -0.1716901180E-01      0.3137700926E-01
          0                 3           1             1    1     1       0.2191334558E-04       1    1    1         0.1201831181E-02      0.2196393829E-02

    ------------------------------------------------
       NWT REQUIRED            3 OUTER ITERATIONS 
       AND A TOTAL OF          5 INNER ITERATIONS.
    ------------------------------------------------

 NO OUTPUT CONTROL FOR STRESS PERIOD   32   TIME STEP   27
 
 SOLVING FOR HEAD 
                                                   Max.-Head-Change                         Max.-Flux-Residual
  Residual-Control   Outer-Iter.   Inner-Iter.     Column Row Layer    Maximum-Head-Change  Column Row Layer    Maximum-Flux-Residual          L2-NORM 
          0                 1           2             1    1     1       0.3305668533E-02       1    1    1         0.1715574596E+00      0.3135493966E+00
          0                 2           2             1    1     1      -0.3215516400E-03       1    1    1        -0.1715576145E-01      0.3135494818E-01
          0                 3           1             1    1     1       0.2189647220E-04       1    1    1         0.1200903661E-02      0.2194847051E-02

    ------------------------------------------------
       NWT REQUIRED            3 OUTER ITERATIONS 
       AND A TOTAL OF          5 INNER ITERATIONS.
    ------------------------------------------------

 NO OUTPUT CONTROL FOR STRESS PERIOD   32   TIME STEP   28
 
 SOLVING FOR HEAD 
                                                   Max.-Head-Change                         Max.-Flux-Residual
  Residual-Control   Outer-Iter.   Inner-Iter.     Column Row Layer    Maximum-Head-Change  Column Row Layer    Maximum-Flux-Residual          L2-NORM 
          0                 1           2             1    1     1       0.3303152456E-02       1    1    1         0.1714265845E+00      0.3133296288E+00
          0                 2           2             1    1     1      -0.3213068938E-03       1    1    1        -0.1714267388E-01      0.3133297080E-01
          0                 3           1             1    1     1       0.2187980614E-04       1    1    1         0.1199987551E-02      0.2193308953E-02

    ------------------------------------------------
       NWT REQUIRED            3 OUTER ITERATIONS 
       AND A TOTAL OF          5 INNER ITERATIONS.
    ------------------------------------------------

 NO OUTPUT CONTROL FOR STRESS PERIOD   32   TIME STEP   29
 
 SOLVING FOR HEAD 
                                                   Max.-Head-Change                         Max.-Flux-Residual
  Residual-Control   Outer-Iter.   Inner-Iter.     Column Row Layer    Maximum-Head-Change  Column Row Layer    Maximum-Flux-Residual          L2-NORM 
          0                 1           2             1    1     1       0.3300621343E-02       1    1    1         0.1712949284E+00      0.3131052777E+00
          0                 2           2             1    1     1      -0.3210606845E-03       1    1    1        -0.1712950820E-01      0.3131053621E-01
          0                 3           1             1    1     1       0.2186304020E-04       1    1    1         0.1199065951E-02      0.2191738350E-02

    ------------------------------------------------
       NWT REQUIRED            3 OUTER ITERATIONS 
       AND A TOTAL OF          5 INNER ITERATIONS.
    ------------------------------------------------

 NO OUTPUT CONTROL FOR STRESS PERIOD   32   TIME STEP   30



 STREAM LISTING     PERIOD     32   STEP       30

 LAYER ROW COL. STREAM  RCH.  FLOW INTO     FLOW TO   FLOW OUT OF   OVRLND.     DIRECT     STREAM       STREAM     STREAM     STREAM   STREAMBED  STREAMBED
                SEG.NO.  NO.  STRM. RCH.    AQUIFER    STRM. RCH.    RUNOFF     PRECIP       ET          HEAD       DEPTH      WIDTH   CONDCTNC.   GRADIENT

   1    1    1     1     1    5.6248E+01  3.5874E-01   5.5890E+01  0.000E+00  0.000E+00  0.000E+00  1.09453E+03  1.479E+00  1.780E+01  8.009E-02  1.493E+00
   1    2    2     1     2    5.5890E+01  5.5549E-01   5.5334E+01  0.000E+00  0.000E+00  0.000E+00  1.08953E+03  1.473E+00  1.774E+01  1.242E-01  1.491E+00
   1    3    3     1     3    5.5334E+01  4.7367E-01   5.4860E+01  0.000E+00  0.000E+00  0.000E+00  1.08389E+03  1.467E+00  1.767E+01  1.060E-01  1.489E+00
   1    3    4     1     4    5.4860E+01  4.3612E-01   5.4424E+01  0.000E+00  0.000E+00  0.000E+00  1.07887E+03  1.461E+00  1.762E+01  9.777E-02  1.487E+00
   1    4    5     2     1    5.2424E+01  3.8056E-01   5.2044E+01  0.000E+00  0.000E+00  0.000E+00  1.07381E+03  1.879E+00  1.200E+01  7.800E-02  1.626E+00
   1    5    6     2     2    5.2044E+01  2.9230E-01   5.1751E+01  0.000E+00  0.000E+00  0.000E+00  1.06838E+03  1.872E+00  1.200E+01  6.000E-02  1.624E+00
   1    6    6     2     3    5.1751E+01  2.9192E-01   5.1459E+01  0.000E+00  0.000E+00  0.000E+00  1.06366E+03  1.865E+00  1.200E+01  6.000E-02  1.622E+00
   1    7    6     2     4    5.1459E+01  2.9154E-01   5.1168E+01  0.000E+00  0.000E+00  0.000E+00  1.05893E+03  1.859E+00  1.200E+01  6.000E-02  1.620E+00
   1    8    6     2     5    5.1168E+01  2.9116E-01   5.0877E+01  0.000E+00  0.000E+00  0.000E+00  1.05421E+03  1.853E+00  1.200E+01  6.000E-02  1.618E+00
   1    3    5     3     1    2.0000E+00  2.8252E-01   1.7175E+00  0.000E+00  0.000E+00  0.000E+00  1.07555E+03  1.909E+00  9.636E+00  7.227E-02  1.955E+00
   1    3    6     3     2    1.7175E+00  2.4905E-01   1.4684E+00  0.000E+00  0.000E+00  0.000E+00  1.07264E+03  1.727E+00  8.909E+00  6.682E-02  1.864E+00
   1    3    7     3     3    1.4684E+00  1.9718E-01   1.2712E+00  0.000E+00  0.000E+00  0.000E+00  1.06987E+03  1.555E+00  8.218E+00  5.547E-02  1.777E+00
   1    4    8     3     4    1.2712E+00  2.2567E-01   1.0456E+00  0.000E+00  0.000E+00  0.000E+00  1.06682E+03  1.364E+00  7.455E+00  6.709E-02  1.682E+00
   1    5    8     3     5    1.0456E+00  1.5790E-01   8.8768E-01  0.000E+00  0.000E+00  0.000E+00  1.06362E+03  1.164E+00  6.655E+00  4.991E-02  1.582E+00
   1    6    8     3     6    8.8768E-01  5.5980E-02   8.3170E-01  0.000E+00  0.000E+00  0.000E+00  1.06158E+03  1.036E+00  6.145E+00  1.844E-02  1.518E+00
   1    5   10     4     1    1.0000E+01  9.0919E-02   9.9091E+00  0.000E+00  0.000E+00  0.000E+00  1.07836E+03  6.368E-01  1.000E+01  2.500E-02  1.212E+00
   1    5    9     4     2    9.9091E+00  1.8158E-01   9.7275E+00  0.000E+00  0.000E+00  0.000E+00  1.07154E+03  6.315E-01  1.000E+01  5.000E-02  1.211E+00
   1    6    8     4     3    9.7275E+00  1.2689E-01   9.6006E+00  0.000E+00  0.000E+00  0.000E+00  1.06381E+03  6.256E-01  1.000E+01  3.500E-02  1.209E+00
   1    6    8     5     1    1.0432E+01  2.2686E-01   1.0205E+01  0.000E+00  0.000E+00  0.000E+00  1.05868E+03  6.790E-01  1.542E+01  6.166E-02  1.226E+00
   1    7    7     5     2    1.0205E+01  2.7894E-01   9.9265E+00  0.000E+00  0.000E+00  0.000E+00  1.05417E+03  6.732E-01  1.519E+01  7.594E-02  1.224E+00
   1    8    7     5     3    9.9265E+00  1.9221E-01   9.7343E+00  0.000E+00  0.000E+00  0.000E+00  1.04992E+03  6.676E-01  1.497E+01  5.241E-02  1.223E+00
   1    8    6     5     4    9.7343E+00  1.3577E-01   9.5985E+00  0.000E+00  0.000E+00  0.000E+00  1.04691E+03  6.637E-01  1.482E+01  3.706E-02  1.221E+00
   1    9    6     6     1    9.5985E+00  2.2097E-01   9.3776E+00  0.000E+00  0.000E+00  0.000E+00  1.04341E+03  6.828E-01  1.200E+01  6.000E-02  1.228E+00
   1   10    7     6     2    9.3776E+00  2.2039E-01   9.1572E+00  0.000E+00  0.000E+00  0.000E+00  1.03885E+03  6.732E-01  1.200E+01  6.000E-02  1.224E+00
   1   11    7     6     3    9.1572E+00  2.1981E-01   8.9374E+00  0.000E+00  0.000E+00  0.000E+00  1.03430E+03  6.636E-01  1.200E+01  6.000E-02  1.221E+00
   1   12    7     6     4    8.9374E+00  2.1923E-01   8.7181E+00  0.000E+00  0.000E+00  0.000E+00  1.02974E+03  6.539E-01  1.200E+01  6.000E-02  1.218E+00
   1   13    7     6     5    8.7181E+00 -1.1035E-01   8.8285E+00  0.000E+00  0.000E+00  0.000E+00  1.02656E+03  6.514E-01  1.200E+01  2.400E-01 -1.533E-01
   1   14    9     7     1    1.5000E+02  1.3447E+00   1.4866E+02  0.000E+00  0.000E+00  0.000E+00  1.03987E+03  2.288E+00  5.529E+01  5.593E-01  8.014E-01
   1   13    8     7     2    1.4866E+02  1.8499E+00   1.4681E+02  0.000E+00  0.000E+00  0.000E+00  1.03478E+03  2.279E+00  5.526E+01  6.148E-01  1.003E+00
   1   13    7     7     3    1.4681E+02  1.4907E+00   1.4531E+02  0.000E+00  0.000E+00  0.000E+00  1.02969E+03  2.270E+00  5.522E+01  5.584E-01  8.898E-01
   1   13    6     8     1    1.5414E+02  8.4273E-01   1.5330E+02  0.000E+00  0.000E+00  0.000E+00  1.02472E+03  2.843E+00  4.122E+01  4.201E-01  6.687E-01
   1   13    5     8     2    1.5330E+02  1.1245E-01   1.5319E+02  0.000E+00  0.000E+00  0.000E+00  1.01846E+03  2.840E+00  4.117E+01  4.196E-01  8.934E-02
   1   13    4     8     3    1.5319E+02 -2.6390E+00   1.5583E+02  0.000E+00  0.000E+00  0.000E+00  1.01222E+03  2.848E+00  4.130E+01  4.209E+00 -2.090E-01
   1   13    3     8     4    1.5583E+02 -3.7271E+00   1.5955E+02  0.000E+00  0.000E+00  0.000E+00  1.00600E+03  2.870E+00  4.162E+01  4.241E+00 -2.929E-01
   1   13    2     8     5    1.5955E+02 -2.5930E+00   1.6215E+02  0.000E+00  0.000E+00  0.000E+00  9.99767E+02  2.892E+00  4.193E+01  4.273E+00 -2.023E-01
   1   13    1     8     6    1.6215E+02 -1.9793E+00   1.6413E+02  0.000E+00  0.000E+00  0.000E+00  9.94782E+02  2.907E+00  4.215E+01  2.577E+00 -2.560E-01
   1    8    6     9     1    5.0877E+01  0.0000E+00   5.0877E+01  0.000E+00  0.000E+00  0.000E+00  1.08476E+03  6.014E+00  4.000E+00  0.000E+00  3.005E+00
   1    8    5     9     2    5.0877E+01  0.0000E+00   5.0877E+01  0.000E+00  0.000E+00  0.000E+00  1.08426E+03  6.014E+00  4.000E+00  0.000E+00  3.005E+00





UNSATURATED ZONE PACKAGE VOLUMETRIC BUDGET FOR  TIME STEP    30 STRESS PERIOD   32
  ------------------------------------------------------------------------------



     CUMULATIVE VOLUMES      L**3       RATES FOR THIS TIME STEP      L**3/T
     ------------------                 ------------------------

           IN:                                      IN:
           ---                                      ---
        INFILTRATION =    69169895.0550          INFILTRATION =           0.8475

          OUT:                                     OUT:
          ----                                     ----
              UZF ET =    68363526.0084                UZF ET =           0.8475
        UZF RECHARGE =       73224.0000          UZF RECHARGE =       0.0000E+00

            IN - OUT =      733145.0466              IN - OUT =       0.0000E+00

          STORAGE:                                 STORAGE:
          --------                                 --------
      STORAGE CHANGE =      733145.3167        STORAGE CHANGE =      -3.0708E-15

 PERCENT DISCREPANCY IS DIFFERENCE BETWEEN IN-OUT MINUS CHANGE IN STORAGE
 DIVIDED BY THE AVERAGE OF IN AND OUT TIMES 100

 PERCENT DISCREPANCY =           0.00     PERCENT DISCREPANCY =           0.00






1
  VOLUMETRIC BUDGET FOR ENTIRE MODEL AT END OF TIME STEP   30, STRESS PERIOD  32
  ------------------------------------------------------------------------------

     CUMULATIVE VOLUMES      L**3       RATES FOR THIS TIME STEP      L**3/T
     ------------------                 ------------------------

           IN:                                      IN:
           ---                                      ---
             STORAGE     =    27039682.0000               STORAGE     =           0.1144
       CONSTANT HEAD     =           0.0000         CONSTANT HEAD     =           0.0000
     HEAD DEP BOUNDS     =    23350702.0000       HEAD DEP BOUNDS     =           0.2864
      STREAM LEAKAGE     =   958912384.0000        STREAM LEAKAGE     =          12.2939
        UZF RECHARGE     =       73223.9531          UZF RECHARGE     =           0.0000
               GW ET     =           0.0000                 GW ET     =           0.0000
     SURFACE LEAKAGE     =           0.0000       SURFACE LEAKAGE     =           0.0000

                TOTAL IN =  1009376000.0000                  TOTAL IN =          12.6946

          OUT:                                     OUT:
          ----                                     ----
             STORAGE     =    82038752.0000               STORAGE     =           1.3593
       CONSTANT HEAD     =           0.0000         CONSTANT HEAD     =           0.0000
     HEAD DEP BOUNDS     =    23417596.0000       HEAD DEP BOUNDS     =           0.2869
      STREAM LEAKAGE     =   903934784.0000        STREAM LEAKAGE     =          11.0488
        UZF RECHARGE     =           0.0000          UZF RECHARGE     =           0.0000
               GW ET     =           0.0000                 GW ET     =           0.0000
     SURFACE LEAKAGE     =           0.0000       SURFACE LEAKAGE     =           0.0000

               TOTAL OUT =  1009391104.0000                 TOTAL OUT =          12.6949

                IN - OUT =      -15104.0000                  IN - OUT =      -3.5191E-04

     PERCENT DISCREPANCY =          -0.00         PERCENT DISCREPANCY =          -0.00






         TIME SUMMARY AT END OF TIME STEP   30 IN STRESS PERIOD   32
                    SECONDS     MINUTES      HOURS       DAYS        YEARS
                    -----------------------------------------------------------
   TIME STEP LENGTH  87667.      1461.1      24.352      1.0147     2.77799E-03
 STRESS PERIOD TIME 2.63000E+06  43833.      730.56      30.440     8.33397E-02
         TOTAL TIME 8.16164E+07 1.36027E+06  22671.      944.63      2.5863    
1
1
                            STRESS PERIOD NO.   33, LENGTH =   2630000.    
                            -----------------------------------------------

                              NUMBER OF TIME STEPS =    30

                               MULTIPLIER FOR DELT =     1.000

                            INITIAL TIME STEP SIZE =   87666.66    

 REUSING NON-PARAMETER GHB CELLS FROM LAST STRESS PERIOD

      2 GHB CELLS

 REUSING STREAM SEGMENT DATA FROM LAST STRESS PERIOD



            AREAL INFILTRATION RATE
 READING ON UNIT   19 WITH FORMAT: (FREE)              

            1           2           3           4           5           6           7           8           9          10
 ........................................................................................................................
   1   1.0000E-10  2.0000E-10   0.000       0.000       0.000       0.000       0.000       0.000       0.000       0.000    
   2   2.0000E-10  1.0000E-10  2.0000E-10   0.000       0.000      8.0000E-10  8.0000E-10  5.0000E-10   0.000       0.000    
   3    0.000      5.0000E-10  1.0000E-10  1.0000E-10  8.0000E-10  8.0000E-10  5.0000E-10  5.0000E-10   0.000       0.000    
   4   8.0000E-10  5.0000E-10  1.0000E-10  1.0000E-10  1.0000E-10  1.0000E-10  1.0000E-10  1.0000E-10  2.0000E-10   0.000    
   5   8.0000E-10  5.0000E-10  1.0000E-10  1.0000E-10  1.0000E-10  1.0000E-10  1.0000E-10  1.0000E-10  1.0000E-10  1.0000E-10
   6   8.0000E-10  5.0000E-10  5.0000E-10  2.0000E-10  2.0000E-10  1.0000E-10  1.0000E-10  1.0000E-10  1.0000E-10  5.0000E-10
   7   8.0000E-10  5.0000E-10  5.0000E-10  2.0000E-10  2.0000E-10  1.0000E-10  1.0000E-10  2.0000E-10  2.0000E-10   0.000    
   8    0.000      5.0000E-10  5.0000E-10  2.0000E-10  2.0000E-10  1.0000E-10  1.0000E-10  2.0000E-10  5.0000E-10   0.000    
   9    0.000      5.0000E-10  5.0000E-10  2.0000E-10  2.0000E-10  1.0000E-10  1.0000E-10  2.0000E-10  5.0000E-10   0.000    
  10    0.000      5.0000E-10  5.0000E-10  2.0000E-10  2.0000E-10  1.0000E-10  1.0000E-10  2.0000E-10  5.0000E-10  8.0000E-10
  11    0.000      1.0000E-10  1.0000E-10  1.0000E-10  1.0000E-10  1.0000E-10  1.0000E-10  2.0000E-10  5.0000E-10   0.000    
  12   1.0000E-10  1.0000E-10  1.0000E-10  1.0000E-10  1.0000E-10  1.0000E-10  1.0000E-10  1.0000E-10  2.0000E-10   0.000    
  13   1.0000E-10  1.0000E-10  2.0000E-10  2.0000E-10  2.0000E-10  2.0000E-10  2.0000E-10  1.0000E-10  1.0000E-10   0.000    
  14    0.000      2.0000E-10  5.0000E-10  5.0000E-10  5.0000E-10  5.0000E-10  5.0000E-10  2.0000E-10  1.0000E-10   0.000    
  15    0.000       0.000      8.0000E-10  8.0000E-10  8.0000E-10  8.0000E-10   0.000       0.000       0.000       0.000    

                  ET RATE =  3.250000E-07

 USING ET EXTINCTION DEPTH FROM PREVIOUS STRESS PERIOD. CURRENT PERIOD IS:      33

 USING EXTINCTION WATER CONTENT FROM PREVIOUS STRESS PERIOD. CURRENT PERIOD IS:      33

 USING AIR ENTRY PRESSURE FROM PREVIOUS STRESS PERIOD. CURRENT PERIOD IS:      33

 USING ROOT PRESSURE HEAD FROM PREVIOUS STRESS PERIOD. CURRENT PERIOD IS:      33

 USING ROOT ACTIVITY FROM PREVIOUS STRESS PERIOD. CURRENT PERIOD IS:      33
 
 SOLVING FOR HEAD 
                                                   Max.-Head-Change                         Max.-Flux-Residual
  Residual-Control   Outer-Iter.   Inner-Iter.     Column Row Layer    Maximum-Head-Change  Column Row Layer    Maximum-Flux-Residual          L2-NORM 
          0                 1           2             1    1     1       0.3264884895E-02       1    1    1         0.1694383663E+00      0.3095700766E+00
          0                 2           2             1    1     1      -0.3175844945E-03       1    1    1        -0.1694385147E-01      0.3095701663E-01
          0                 3           1             1    1     1       0.2162632457E-04       1    1    1         0.1186069973E-02      0.2166992315E-02

    ------------------------------------------------
       NWT REQUIRED            3 OUTER ITERATIONS 
       AND A TOTAL OF          5 INNER ITERATIONS.
    ------------------------------------------------

 NO OUTPUT CONTROL FOR STRESS PERIOD   33   TIME STEP    1
 
 SOLVING FOR HEAD 
                                                   Max.-Head-Change                         Max.-Flux-Residual
  Residual-Control   Outer-Iter.   Inner-Iter.     Column Row Layer    Maximum-Head-Change  Column Row Layer    Maximum-Flux-Residual          L2-NORM 
          0                 1           2             1    1     1       0.2605481664E-02       1    1    1         0.1351843865E+00      0.2529528354E+00
          0                 2           2             1    1     1      -0.2534424185E-03       1    1    1        -0.1351844542E-01      0.2529528844E-01
          0                 3           1             1    1     1       0.1725848786E-04       1    1    1         0.9462915181E-03      0.1770671102E-02

    ------------------------------------------------
       NWT REQUIRED            3 OUTER ITERATIONS 
       AND A TOTAL OF          5 INNER ITERATIONS.
    ------------------------------------------------

 NO OUTPUT CONTROL FOR STRESS PERIOD   33   TIME STEP    2
 
 SOLVING FOR HEAD 
                                                   Max.-Head-Change                         Max.-Flux-Residual
  Residual-Control   Outer-Iter.   Inner-Iter.     Column Row Layer    Maximum-Head-Change  Column Row Layer    Maximum-Flux-Residual          L2-NORM 
          0                 1           2             1    1     1       0.2604173562E-02       1    1    1         0.1351164116E+00      0.2525200815E+00
          0                 2           2             1    1     1      -0.2533151755E-03       1    1    1        -0.1351164790E-01      0.2525201425E-01
          0                 3           1             1    1     1       0.1724982349E-04       1    1    1         0.9458157072E-03      0.1767641567E-02

    ------------------------------------------------
       NWT REQUIRED            3 OUTER ITERATIONS 
       AND A TOTAL OF          5 INNER ITERATIONS.
    ------------------------------------------------

 NO OUTPUT CONTROL FOR STRESS PERIOD   33   TIME STEP    3
 
 SOLVING FOR HEAD 
                                                   Max.-Head-Change                         Max.-Flux-Residual
  Residual-Control   Outer-Iter.   Inner-Iter.     Column Row Layer    Maximum-Head-Change  Column Row Layer    Maximum-Flux-Residual          L2-NORM 
          0                 1           2             1    1     1       0.2602845265E-02       1    1    1         0.1350473866E+00      0.2521115285E+00
          0                 2           2             1    1     1      -0.2531859681E-03       1    1    1        -0.1350474540E-01      0.2521115771E-01
          0                 3           1             1    1     1       0.1724102468E-04       1    1    1         0.9453325119E-03      0.1764782089E-02

    ------------------------------------------------
       NWT REQUIRED            3 OUTER ITERATIONS 
       AND A TOTAL OF          5 INNER ITERATIONS.
    ------------------------------------------------

 NO OUTPUT CONTROL FOR STRESS PERIOD   33   TIME STEP    4
 
 SOLVING FOR HEAD 
                                                   Max.-Head-Change                         Max.-Flux-Residual
  Residual-Control   Outer-Iter.   Inner-Iter.     Column Row Layer    Maximum-Head-Change  Column Row Layer    Maximum-Flux-Residual          L2-NORM 
          0                 1           2             1    1     1       0.2601543112E-02       1    1    1         0.1349797196E+00      0.2517231182E+00
          0                 2           2             1    1     1      -0.2530593039E-03       1    1    1        -0.1349797867E-01      0.2517231777E-01
          0                 3           1             1    1     1       0.1723239960E-04       1    1    1         0.9448588540E-03      0.1762062964E-02

    ------------------------------------------------
       NWT REQUIRED            3 OUTER ITERATIONS 
       AND A TOTAL OF          5 INNER ITERATIONS.
    ------------------------------------------------

 NO OUTPUT CONTROL FOR STRESS PERIOD   33   TIME STEP    5
 
 SOLVING FOR HEAD 
                                                   Max.-Head-Change                         Max.-Flux-Residual
  Residual-Control   Outer-Iter.   Inner-Iter.     Column Row Layer    Maximum-Head-Change  Column Row Layer    Maximum-Flux-Residual          L2-NORM 
          0                 1           2             1    1     1       0.2600220754E-02       1    1    1         0.1349110029E+00      0.2513637558E+00
          0                 2           2             1    1     1      -0.2529306746E-03       1    1    1        -0.1349110700E-01      0.2513638048E-01
          0                 3           1             1    1     1       0.1722364032E-04       1    1    1         0.9443778357E-03      0.1759547562E-02

    ------------------------------------------------
       NWT REQUIRED            3 OUTER ITERATIONS 
       AND A TOTAL OF          5 INNER ITERATIONS.
    ------------------------------------------------

 NO OUTPUT CONTROL FOR STRESS PERIOD   33   TIME STEP    6
 
 SOLVING FOR HEAD 
                                                   Max.-Head-Change                         Max.-Flux-Residual
  Residual-Control   Outer-Iter.   Inner-Iter.     Column Row Layer    Maximum-Head-Change  Column Row Layer    Maximum-Flux-Residual          L2-NORM 
          0                 1           2             1    1     1       0.2598901381E-02       1    1    1         0.1348424412E+00      0.2510238940E+00
          0                 2           2             1    1     1      -0.2528023353E-03       1    1    1        -0.1348425080E-01      0.2510239603E-01
          0                 3           1             1    1     1       0.1721490116E-04       1    1    1         0.9438979121E-03      0.1757168462E-02

    ------------------------------------------------
       NWT REQUIRED            3 OUTER ITERATIONS 
       AND A TOTAL OF          5 INNER ITERATIONS.
    ------------------------------------------------

 NO OUTPUT CONTROL FOR STRESS PERIOD   33   TIME STEP    7
 
 SOLVING FOR HEAD 
                                                   Max.-Head-Change                         Max.-Flux-Residual
  Residual-Control   Outer-Iter.   Inner-Iter.     Column Row Layer    Maximum-Head-Change  Column Row Layer    Maximum-Flux-Residual          L2-NORM 
          0                 1           2             1    1     1       0.2597608129E-02       1    1    1         0.1347752371E+00      0.2507003307E+00
          0                 2           2             1    1     1      -0.2526765365E-03       1    1    1        -0.1347753037E-01      0.2507003831E-01
          0                 3           1             1    1     1       0.1720633454E-04       1    1    1         0.9434274655E-03      0.1754903583E-02

    ------------------------------------------------
       NWT REQUIRED            3 OUTER ITERATIONS 
       AND A TOTAL OF          5 INNER ITERATIONS.
    ------------------------------------------------

 NO OUTPUT CONTROL FOR STRESS PERIOD   33   TIME STEP    8
 
 SOLVING FOR HEAD 
                                                   Max.-Head-Change                         Max.-Flux-Residual
  Residual-Control   Outer-Iter.   Inner-Iter.     Column Row Layer    Maximum-Head-Change  Column Row Layer    Maximum-Flux-Residual          L2-NORM 
          0                 1           2             1    1     1       0.2596294657E-02       1    1    1         0.1347069817E+00      0.2503908208E+00
          0                 2           2             1    1     1      -0.2525487714E-03       1    1    1        -0.1347070481E-01      0.2503908632E-01
          0                 3           1             1    1     1       0.1719763443E-04       1    1    1         0.9429496838E-03      0.1752736261E-02

    ------------------------------------------------
       NWT REQUIRED            3 OUTER ITERATIONS 
       AND A TOTAL OF          5 INNER ITERATIONS.
    ------------------------------------------------

 NO OUTPUT CONTROL FOR STRESS PERIOD   33   TIME STEP    9
 
 SOLVING FOR HEAD 
                                                   Max.-Head-Change                         Max.-Flux-Residual
  Residual-Control   Outer-Iter.   Inner-Iter.     Column Row Layer    Maximum-Head-Change  Column Row Layer    Maximum-Flux-Residual          L2-NORM 
          0                 1           2             1    1     1       0.2594984160E-02       1    1    1         0.1346388807E+00      0.2501024355E+00
          0                 2           2             1    1     1      -0.2524212955E-03       1    1    1        -0.1346389470E-01      0.2501024723E-01
          0                 3           1             1    1     1       0.1718895325E-04       1    1    1         0.9424729731E-03      0.1750717463E-02

    ------------------------------------------------
       NWT REQUIRED            3 OUTER ITERATIONS 
       AND A TOTAL OF          5 INNER ITERATIONS.
    ------------------------------------------------

 NO OUTPUT CONTROL FOR STRESS PERIOD   33   TIME STEP   10
 
 SOLVING FOR HEAD 
                                                   Max.-Head-Change                         Max.-Flux-Residual
  Residual-Control   Outer-Iter.   Inner-Iter.     Column Row Layer    Maximum-Head-Change  Column Row Layer    Maximum-Flux-Residual          L2-NORM 
          0                 1           2             1    1     1       0.2593699795E-02       1    1    1         0.1345721370E+00      0.2498262185E+00
          0                 2           2             1    1     1      -0.2522963616E-03       1    1    1        -0.1345722033E-01      0.2498262769E-01
          0                 3           1             1    1     1       0.1718044579E-04       1    1    1         0.9420057603E-03      0.1748787893E-02

    ------------------------------------------------
       NWT REQUIRED            3 OUTER ITERATIONS 
       AND A TOTAL OF          5 INNER ITERATIONS.
    ------------------------------------------------

 NO OUTPUT CONTROL FOR STRESS PERIOD   33   TIME STEP   11
 
 SOLVING FOR HEAD 
                                                   Max.-Head-Change                         Max.-Flux-Residual
  Residual-Control   Outer-Iter.   Inner-Iter.     Column Row Layer    Maximum-Head-Change  Column Row Layer    Maximum-Flux-Residual          L2-NORM 
          0                 1           2             1    1     1       0.2592395194E-02       1    1    1         0.1345043421E+00      0.2495652232E+00
          0                 2           2             1    1     1      -0.2521694594E-03       1    1    1        -0.1345044082E-01      0.2495652728E-01
          0                 3           1             1    1     1       0.1717180462E-04       1    1    1         0.9415312078E-03      0.1746957774E-02

    ------------------------------------------------
       NWT REQUIRED            3 OUTER ITERATIONS 
       AND A TOTAL OF          5 INNER ITERATIONS.
    ------------------------------------------------

 NO OUTPUT CONTROL FOR STRESS PERIOD   33   TIME STEP   12
 
 SOLVING FOR HEAD 
                                                   Max.-Head-Change                         Max.-Flux-Residual
  Residual-Control   Outer-Iter.   Inner-Iter.     Column Row Layer    Maximum-Head-Change  Column Row Layer    Maximum-Flux-Residual          L2-NORM 
          0                 1           2             1    1     1       0.2591093556E-02       1    1    1         0.1344367011E+00      0.2493106440E+00
          0                 2           2             1    1     1      -0.2520428453E-03       1    1    1        -0.1344367671E-01      0.2493106851E-01
          0                 3           1             1    1     1       0.1716318237E-04       1    1    1         0.9410577059E-03      0.1745175116E-02

    ------------------------------------------------
       NWT REQUIRED            3 OUTER ITERATIONS 
       AND A TOTAL OF          5 INNER ITERATIONS.
    ------------------------------------------------

 NO OUTPUT CONTROL FOR STRESS PERIOD   33   TIME STEP   13
 
 SOLVING FOR HEAD 
                                                   Max.-Head-Change                         Max.-Flux-Residual
  Residual-Control   Outer-Iter.   Inner-Iter.     Column Row Layer    Maximum-Head-Change  Column Row Layer    Maximum-Flux-Residual          L2-NORM 
          0                 1           2             1    1     1       0.2589818025E-02       1    1    1         0.1343704170E+00      0.2490669962E+00
          0                 2           2             1    1     1      -0.2519187704E-03       1    1    1        -0.1343704826E-01      0.2490670453E-01
          0                 3           1             1    1     1       0.1715473361E-04       1    1    1         0.9405937271E-03      0.1743470274E-02

    ------------------------------------------------
       NWT REQUIRED            3 OUTER ITERATIONS 
       AND A TOTAL OF          5 INNER ITERATIONS.
    ------------------------------------------------

 NO OUTPUT CONTROL FOR STRESS PERIOD   33   TIME STEP   14
 
 SOLVING FOR HEAD 
                                                   Max.-Head-Change                         Max.-Flux-Residual
  Residual-Control   Outer-Iter.   Inner-Iter.     Column Row Layer    Maximum-Head-Change  Column Row Layer    Maximum-Flux-Residual          L2-NORM 
          0                 1           2             1    1     1       0.2588522241E-02       1    1    1         0.1343030799E+00      0.2488339525E+00
          0                 2           2             1    1     1      -0.2517927258E-03       1    1    1        -0.1343031455E-01      0.2488340093E-01
          0                 3           1             1    1     1       0.1714614994E-04       1    1    1         0.9401223512E-03      0.1741838911E-02

    ------------------------------------------------
       NWT REQUIRED            3 OUTER ITERATIONS 
       AND A TOTAL OF          5 INNER ITERATIONS.
    ------------------------------------------------

 NO OUTPUT CONTROL FOR STRESS PERIOD   33   TIME STEP   15
 
 SOLVING FOR HEAD 
                                                   Max.-Head-Change                         Max.-Flux-Residual
  Residual-Control   Outer-Iter.   Inner-Iter.     Column Row Layer    Maximum-Head-Change  Column Row Layer    Maximum-Flux-Residual          L2-NORM 
          0                 1           2             1    1     1       0.2587229407E-02       1    1    1         0.1342358960E+00      0.2486072514E+00
          0                 2           2             1    1     1      -0.2516669683E-03       1    1    1        -0.1342359615E-01      0.2486073011E-01
          0                 3           1             1    1     1       0.1713758663E-04       1    1    1         0.9396520762E-03      0.1740257045E-02

    ------------------------------------------------
       NWT REQUIRED            3 OUTER ITERATIONS 
       AND A TOTAL OF          5 INNER ITERATIONS.
    ------------------------------------------------

 NO OUTPUT CONTROL FOR STRESS PERIOD   33   TIME STEP   16
 
 SOLVING FOR HEAD 
                                                   Max.-Head-Change                         Max.-Flux-Residual
  Residual-Control   Outer-Iter.   Inner-Iter.     Column Row Layer    Maximum-Head-Change  Column Row Layer    Maximum-Flux-Residual          L2-NORM 
          0                 1           2             1    1     1       0.2585939519E-02       1    1    1         0.1341688651E+00      0.2483930651E+00
          0                 2           2             1    1     1      -0.2515414969E-03       1    1    1        -0.1341689303E-01      0.2483931051E-01
          0                 3           1             1    1     1       0.1712904225E-04       1    1    1         0.9391828599E-03      0.1738760329E-02

    ------------------------------------------------
       NWT REQUIRED            3 OUTER ITERATIONS 
       AND A TOTAL OF          5 INNER ITERATIONS.
    ------------------------------------------------

 NO OUTPUT CONTROL FOR STRESS PERIOD   33   TIME STEP   17
 
 SOLVING FOR HEAD 
                                                   Max.-Head-Change                         Max.-Flux-Residual
  Residual-Control   Outer-Iter.   Inner-Iter.     Column Row Layer    Maximum-Head-Change  Column Row Layer    Maximum-Flux-Residual          L2-NORM 
          0                 1           2             1    1     1       0.2584675745E-02       1    1    1         0.1341031906E+00      0.2481885363E+00
          0                 2           2             1    1     1      -0.2514185657E-03       1    1    1        -0.1341032557E-01      0.2481885882E-01
          0                 3           1             1    1     1       0.1712067088E-04       1    1    1         0.9387231187E-03      0.1737320976E-02

    ------------------------------------------------
       NWT REQUIRED            3 OUTER ITERATIONS 
       AND A TOTAL OF          5 INNER ITERATIONS.
    ------------------------------------------------

 NO OUTPUT CONTROL FOR STRESS PERIOD   33   TIME STEP   18
 
 SOLVING FOR HEAD 
                                                   Max.-Head-Change                         Max.-Flux-Residual
  Residual-Control   Outer-Iter.   Inner-Iter.     Column Row Layer    Maximum-Head-Change  Column Row Layer    Maximum-Flux-Residual          L2-NORM 
          0                 1           2             1    1     1       0.2583391694E-02       1    1    1         0.1340364628E+00      0.2479842639E+00
          0                 2           2             1    1     1      -0.2512936624E-03       1    1    1        -0.1340365277E-01      0.2479843172E-01
          0                 3           1             1    1     1       0.1711216556E-04       1    1    1         0.9382560273E-03      0.1735891364E-02

    ------------------------------------------------
       NWT REQUIRED            3 OUTER ITERATIONS 
       AND A TOTAL OF          5 INNER ITERATIONS.
    ------------------------------------------------

 NO OUTPUT CONTROL FOR STRESS PERIOD   33   TIME STEP   19
 
 SOLVING FOR HEAD 
                                                   Max.-Head-Change                         Max.-Flux-Residual
  Residual-Control   Outer-Iter.   Inner-Iter.     Column Row Layer    Maximum-Head-Change  Column Row Layer    Maximum-Flux-Residual          L2-NORM 
          0                 1           2             1    1     1       0.2582110575E-02       1    1    1         0.1339698872E+00      0.2477871357E+00
          0                 2           2             1    1     1      -0.2511690445E-03       1    1    1        -0.1339699520E-01      0.2477871822E-01
          0                 3           1             1    1     1       0.1710368011E-04       1    1    1         0.9377900189E-03      0.1734510686E-02

    ------------------------------------------------
       NWT REQUIRED            3 OUTER ITERATIONS 
       AND A TOTAL OF          5 INNER ITERATIONS.
    ------------------------------------------------

 NO OUTPUT CONTROL FOR STRESS PERIOD   33   TIME STEP   20
 
 SOLVING FOR HEAD 
                                                   Max.-Head-Change                         Max.-Flux-Residual
  Residual-Control   Outer-Iter.   Inner-Iter.     Column Row Layer    Maximum-Head-Change  Column Row Layer    Maximum-Flux-Residual          L2-NORM 
          0                 1           2             1    1     1       0.2580832383E-02       1    1    1         0.1339034637E+00      0.2475970047E+00
          0                 2           2             1    1     1      -0.2510447105E-03       1    1    1        -0.1339035282E-01      0.2475973494E-01
          0                 3           1             1    1     1       0.1709521289E-04       1    1    1         0.9373250299E-03      0.1733165041E-02

    ------------------------------------------------
       NWT REQUIRED            3 OUTER ITERATIONS 
       AND A TOTAL OF          5 INNER ITERATIONS.
    ------------------------------------------------

 NO OUTPUT CONTROL FOR STRESS PERIOD   33   TIME STEP   21
 
 SOLVING FOR HEAD 
                                                   Max.-Head-Change                         Max.-Flux-Residual
  Residual-Control   Outer-Iter.   Inner-Iter.     Column Row Layer    Maximum-Head-Change  Column Row Layer    Maximum-Flux-Residual          L2-NORM 
          0                 1           2             1    1     1       0.2579580274E-02       1    1    1         0.1338383959E+00      0.2474128626E+00
          0                 2           2             1    1     1      -0.2509229147E-03       1    1    1        -0.1338384604E-01      0.2474178047E-01
          0                 3           1             1    1     1       0.1708691938E-04       1    1    1         0.9368695743E-03      0.1731925251E-02

    ------------------------------------------------
       NWT REQUIRED            3 OUTER ITERATIONS 
       AND A TOTAL OF          5 INNER ITERATIONS.
    ------------------------------------------------

 NO OUTPUT CONTROL FOR STRESS PERIOD   33   TIME STEP   22
 
 SOLVING FOR HEAD 
                                                   Max.-Head-Change                         Max.-Flux-Residual
  Residual-Control   Outer-Iter.   Inner-Iter.     Column Row Layer    Maximum-Head-Change  Column Row Layer    Maximum-Flux-Residual          L2-NORM 
          0                 1           2             1    1     1       0.2578307863E-02       1    1    1         0.1337722726E+00      0.2472342899E+00
          0                 2           2             1    1     1      -0.2507991437E-03       1    1    1        -0.1337723370E-01      0.2472343368E-01
          0                 3           1             1    1     1       0.1707849097E-04       1    1    1         0.9364067095E-03      0.1730641210E-02

    ------------------------------------------------
       NWT REQUIRED            3 OUTER ITERATIONS 
       AND A TOTAL OF          5 INNER ITERATIONS.
    ------------------------------------------------

 NO OUTPUT CONTROL FOR STRESS PERIOD   33   TIME STEP   23
 
 SOLVING FOR HEAD 
                                                   Max.-Head-Change                         Max.-Flux-Residual
  Residual-Control   Outer-Iter.   Inner-Iter.     Column Row Layer    Maximum-Head-Change  Column Row Layer    Maximum-Flux-Residual          L2-NORM 
          0                 1           2             1    1     1       0.2577038364E-02       1    1    1         0.1337063006E+00      0.2470618597E+00
          0                 2           2             1    1     1      -0.2506756556E-03       1    1    1        -0.1337063647E-01      0.2470619031E-01
          0                 3           1             1    1     1       0.1707008197E-04       1    1    1         0.9359449026E-03      0.1729435858E-02

    ------------------------------------------------
       NWT REQUIRED            3 OUTER ITERATIONS 
       AND A TOTAL OF          5 INNER ITERATIONS.
    ------------------------------------------------

 NO OUTPUT CONTROL FOR STRESS PERIOD   33   TIME STEP   24
 
 SOLVING FOR HEAD 
                                                   Max.-Head-Change                         Max.-Flux-Residual
  Residual-Control   Outer-Iter.   Inner-Iter.     Column Row Layer    Maximum-Head-Change  Column Row Layer    Maximum-Flux-Residual          L2-NORM 
          0                 1           2             1    1     1       0.2575771773E-02       1    1    1         0.1336404796E+00      0.2468863563E+00
          0                 2           2             1    1     1      -0.2505524507E-03       1    1    1        -0.1336405435E-01      0.2468864097E-01
          0                 3           1             1    1     1       0.1706169238E-04       1    1    1         0.9354841598E-03      0.1728206455E-02

    ------------------------------------------------
       NWT REQUIRED            3 OUTER ITERATIONS 
       AND A TOTAL OF          5 INNER ITERATIONS.
    ------------------------------------------------

 NO OUTPUT CONTROL FOR STRESS PERIOD   33   TIME STEP   25
 
 SOLVING FOR HEAD 
                                                   Max.-Head-Change                         Max.-Flux-Residual
  Residual-Control   Outer-Iter.   Inner-Iter.     Column Row Layer    Maximum-Head-Change  Column Row Layer    Maximum-Flux-Residual          L2-NORM 
          0                 1           2             1    1     1       0.2574508084E-02       1    1    1         0.1335748093E+00      0.2467157141E+00
          0                 2           2             1    1     1      -0.2504295278E-03       1    1    1        -0.1335748731E-01      0.2467157600E-01
          0                 3           1             1    1     1       0.1705332148E-04       1    1    1         0.9350244532E-03      0.1727010922E-02

    ------------------------------------------------
       NWT REQUIRED            3 OUTER ITERATIONS 
       AND A TOTAL OF          5 INNER ITERATIONS.
    ------------------------------------------------

 NO OUTPUT CONTROL FOR STRESS PERIOD   33   TIME STEP   26
 
 SOLVING FOR HEAD 
                                                   Max.-Head-Change                         Max.-Flux-Residual
  Residual-Control   Outer-Iter.   Inner-Iter.     Column Row Layer    Maximum-Head-Change  Column Row Layer    Maximum-Flux-Residual          L2-NORM 
          0                 1           2             1    1     1       0.2573270505E-02       1    1    1         0.1335104939E+00      0.2465561487E+00
          0                 2           2             1    1     1      -0.2503091451E-03       1    1    1        -0.1335105577E-01      0.2465561832E-01
          0                 3           1             1    1     1       0.1704512406E-04       1    1    1         0.9345742405E-03      0.1725893009E-02

    ------------------------------------------------
       NWT REQUIRED            3 OUTER ITERATIONS 
       AND A TOTAL OF          5 INNER ITERATIONS.
    ------------------------------------------------

 NO OUTPUT CONTROL FOR STRESS PERIOD   33   TIME STEP   27
 
 SOLVING FOR HEAD 
                                                   Max.-Head-Change                         Max.-Flux-Residual
  Residual-Control   Outer-Iter.   Inner-Iter.     Column Row Layer    Maximum-Head-Change  Column Row Layer    Maximum-Flux-Residual          L2-NORM 
          0                 1           2             1    1     1       0.2572012588E-02       1    1    1         0.1334451235E+00      0.2463990534E+00
          0                 2           2             1    1     1      -0.2501867839E-03       1    1    1        -0.1334451871E-01      0.2463990974E-01
          0                 3           1             1    1     1       0.1703679151E-04       1    1    1         0.9341166554E-03      0.1724794749E-02

    ------------------------------------------------
       NWT REQUIRED            3 OUTER ITERATIONS 
       AND A TOTAL OF          5 INNER ITERATIONS.
    ------------------------------------------------

 NO OUTPUT CONTROL FOR STRESS PERIOD   33   TIME STEP   28
 
 SOLVING FOR HEAD 
                                                   Max.-Head-Change                         Max.-Flux-Residual
  Residual-Control   Outer-Iter.   Inner-Iter.     Column Row Layer    Maximum-Head-Change  Column Row Layer    Maximum-Flux-Residual          L2-NORM 
          0                 1           2             1    1     1       0.2570757558E-02       1    1    1         0.1333799030E+00      0.2462406445E+00
          0                 2           2             1    1     1      -0.2500647035E-03       1    1    1        -0.1333799664E-01      0.2462407081E-01
          0                 3           1             1    1     1       0.1702847836E-04       1    1    1         0.9336601204E-03      0.1723694528E-02

    ------------------------------------------------
       NWT REQUIRED            3 OUTER ITERATIONS 
       AND A TOTAL OF          5 INNER ITERATIONS.
    ------------------------------------------------

 NO OUTPUT CONTROL FOR STRESS PERIOD   33   TIME STEP   29
 
 SOLVING FOR HEAD 
                                                   Max.-Head-Change                         Max.-Flux-Residual
  Residual-Control   Outer-Iter.   Inner-Iter.     Column Row Layer    Maximum-Head-Change  Column Row Layer    Maximum-Flux-Residual          L2-NORM 
          0                 1           2             1    1     1       0.2569505409E-02       1    1    1         0.1333148322E+00      0.2460859609E+00
          0                 2           2             1    1     1      -0.2499429031E-03       1    1    1        -0.1333148954E-01      0.2460860146E-01
          0                 3           1             1    1     1       0.1702018438E-04       1    1    1         0.9332046157E-03      0.1722603075E-02

    ------------------------------------------------
       NWT REQUIRED            3 OUTER ITERATIONS 
       AND A TOTAL OF          5 INNER ITERATIONS.
    ------------------------------------------------

 NO OUTPUT CONTROL FOR STRESS PERIOD   33   TIME STEP   30



 STREAM LISTING     PERIOD     33   STEP       30

 LAYER ROW COL. STREAM  RCH.  FLOW INTO     FLOW TO   FLOW OUT OF   OVRLND.     DIRECT     STREAM       STREAM     STREAM     STREAM   STREAMBED  STREAMBED
                SEG.NO.  NO.  STRM. RCH.    AQUIFER    STRM. RCH.    RUNOFF     PRECIP       ET          HEAD       DEPTH      WIDTH   CONDCTNC.   GRADIENT

   1    1    1     1     1    4.5749E+01  3.2289E-01   4.5426E+01  0.000E+00  0.000E+00  0.000E+00  1.09442E+03  1.372E+00  1.641E+01  7.386E-02  1.457E+00
   1    2    2     1     2    4.5426E+01  5.0022E-01   4.4925E+01  0.000E+00  0.000E+00  0.000E+00  1.08943E+03  1.369E+00  1.636E+01  1.145E-01  1.456E+00
   1    3    3     1     3    4.4925E+01  4.2678E-01   4.4499E+01  0.000E+00  0.000E+00  0.000E+00  1.08378E+03  1.366E+00  1.629E+01  9.776E-02  1.455E+00
   1    3    4     1     4    4.4499E+01  3.9314E-01   4.4106E+01  0.000E+00  0.000E+00  0.000E+00  1.07877E+03  1.363E+00  1.624E+01  9.011E-02  1.454E+00
   1    4    5     2     1    4.2106E+01  3.6245E-01   4.1743E+01  0.000E+00  0.000E+00  0.000E+00  1.07358E+03  1.647E+00  1.200E+01  7.800E-02  1.549E+00
   1    5    6     2     2    4.1743E+01  2.7835E-01   4.1465E+01  0.000E+00  0.000E+00  0.000E+00  1.06815E+03  1.639E+00  1.200E+01  6.000E-02  1.546E+00
   1    6    6     2     3    4.1465E+01  2.7796E-01   4.1187E+01  0.000E+00  0.000E+00  0.000E+00  1.06343E+03  1.633E+00  1.200E+01  6.000E-02  1.544E+00
   1    7    6     2     4    4.1187E+01  2.7756E-01   4.0909E+01  0.000E+00  0.000E+00  0.000E+00  1.05870E+03  1.626E+00  1.200E+01  6.000E-02  1.542E+00
   1    8    6     2     5    4.0909E+01  2.7716E-01   4.0632E+01  0.000E+00  0.000E+00  0.000E+00  1.05398E+03  1.619E+00  1.200E+01  6.000E-02  1.540E+00
   1    3    5     3     1    2.0000E+00  2.8252E-01   1.7175E+00  0.000E+00  0.000E+00  0.000E+00  1.07555E+03  1.909E+00  9.636E+00  7.227E-02  1.955E+00
   1    3    6     3     2    1.7175E+00  2.4905E-01   1.4684E+00  0.000E+00  0.000E+00  0.000E+00  1.07264E+03  1.727E+00  8.909E+00  6.682E-02  1.864E+00
   1    3    7     3     3    1.4684E+00  1.9718E-01   1.2712E+00  0.000E+00  0.000E+00  0.000E+00  1.06987E+03  1.555E+00  8.218E+00  5.547E-02  1.777E+00
   1    4    8     3     4    1.2712E+00  2.2567E-01   1.0456E+00  0.000E+00  0.000E+00  0.000E+00  1.06682E+03  1.364E+00  7.455E+00  6.709E-02  1.682E+00
   1    5    8     3     5    1.0456E+00  1.5790E-01   8.8768E-01  0.000E+00  0.000E+00  0.000E+00  1.06362E+03  1.164E+00  6.655E+00  4.991E-02  1.582E+00
   1    6    8     3     6    8.8768E-01  5.5980E-02   8.3170E-01  0.000E+00  0.000E+00  0.000E+00  1.06158E+03  1.036E+00  6.145E+00  1.844E-02  1.518E+00
   1    5   10     4     1    1.0000E+01  9.0919E-02   9.9091E+00  0.000E+00  0.000E+00  0.000E+00  1.07836E+03  6.368E-01  1.000E+01  2.500E-02  1.212E+00
   1    5    9     4     2    9.9091E+00  1.8158E-01   9.7275E+00  0.000E+00  0.000E+00  0.000E+00  1.07154E+03  6.315E-01  1.000E+01  5.000E-02  1.211E+00
   1    6    8     4     3    9.7275E+00  1.2689E-01   9.6006E+00  0.000E+00  0.000E+00  0.000E+00  1.06381E+03  6.256E-01  1.000E+01  3.500E-02  1.209E+00
   1    6    8     5     1    1.0432E+01  2.2686E-01   1.0205E+01  0.000E+00  0.000E+00  0.000E+00  1.05868E+03  6.790E-01  1.542E+01  6.166E-02  1.226E+00
   1    7    7     5     2    1.0205E+01  2.7894E-01   9.9265E+00  0.000E+00  0.000E+00  0.000E+00  1.05417E+03  6.732E-01  1.519E+01  7.594E-02  1.224E+00
   1    8    7     5     3    9.9265E+00  1.9221E-01   9.7343E+00  0.000E+00  0.000E+00  0.000E+00  1.04992E+03  6.676E-01  1.497E+01  5.241E-02  1.223E+00
   1    8    6     5     4    9.7343E+00  1.3577E-01   9.5985E+00  0.000E+00  0.000E+00  0.000E+00  1.04691E+03  6.637E-01  1.482E+01  3.706E-02  1.221E+00
   1    9    6     6     1    9.5985E+00  2.2097E-01   9.3776E+00  0.000E+00  0.000E+00  0.000E+00  1.04341E+03  6.828E-01  1.200E+01  6.000E-02  1.228E+00
   1   10    7     6     2    9.3776E+00  2.2039E-01   9.1572E+00  0.000E+00  0.000E+00  0.000E+00  1.03885E+03  6.732E-01  1.200E+01  6.000E-02  1.224E+00
   1   11    7     6     3    9.1572E+00  2.1981E-01   8.9374E+00  0.000E+00  0.000E+00  0.000E+00  1.03430E+03  6.636E-01  1.200E+01  6.000E-02  1.221E+00
   1   12    7     6     4    8.9374E+00  2.1923E-01   8.7181E+00  0.000E+00  0.000E+00  0.000E+00  1.02974E+03  6.539E-01  1.200E+01  6.000E-02  1.218E+00
   1   13    7     6     5    8.7181E+00 -1.1032E-01   8.8285E+00  0.000E+00  0.000E+00  0.000E+00  1.02656E+03  6.514E-01  1.200E+01  2.400E-01 -1.532E-01
   1   14    9     7     1    1.5000E+02  1.3448E+00   1.4866E+02  0.000E+00  0.000E+00  0.000E+00  1.03987E+03  2.288E+00  5.529E+01  5.593E-01  8.015E-01
   1   13    8     7     2    1.4866E+02  1.8501E+00   1.4681E+02  0.000E+00  0.000E+00  0.000E+00  1.03478E+03  2.279E+00  5.526E+01  6.148E-01  1.003E+00
   1   13    7     7     3    1.4681E+02  1.4907E+00   1.4531E+02  0.000E+00  0.000E+00  0.000E+00  1.02969E+03  2.270E+00  5.522E+01  5.584E-01  8.898E-01
   1   13    6     8     1    1.5414E+02  8.4280E-01   1.5330E+02  0.000E+00  0.000E+00  0.000E+00  1.02472E+03  2.843E+00  4.122E+01  4.201E-01  6.688E-01
   1   13    5     8     2    1.5330E+02  1.1251E-01   1.5319E+02  0.000E+00  0.000E+00  0.000E+00  1.01846E+03  2.840E+00  4.117E+01  4.196E-01  8.938E-02
   1   13    4     8     3    1.5319E+02 -2.6388E+00   1.5583E+02  0.000E+00  0.000E+00  0.000E+00  1.01222E+03  2.848E+00  4.130E+01  4.209E+00 -2.090E-01
   1   13    3     8     4    1.5583E+02 -3.7268E+00   1.5955E+02  0.000E+00  0.000E+00  0.000E+00  1.00600E+03  2.870E+00  4.162E+01  4.241E+00 -2.929E-01
   1   13    2     8     5    1.5955E+02 -2.5929E+00   1.6215E+02  0.000E+00  0.000E+00  0.000E+00  9.99767E+02  2.892E+00  4.193E+01  4.273E+00 -2.023E-01
   1   13    1     8     6    1.6215E+02 -1.9793E+00   1.6413E+02  0.000E+00  0.000E+00  0.000E+00  9.94782E+02  2.907E+00  4.215E+01  2.577E+00 -2.560E-01
   1    8    6     9     1    4.0632E+01  0.0000E+00   4.0632E+01  0.000E+00  0.000E+00  0.000E+00  1.08401E+03  5.255E+00  4.000E+00  0.000E+00  2.752E+00
   1    8    5     9     2    4.0632E+01  0.0000E+00   4.0632E+01  0.000E+00  0.000E+00  0.000E+00  1.08351E+03  5.255E+00  4.000E+00  0.000E+00  2.752E+00





UNSATURATED ZONE PACKAGE VOLUMETRIC BUDGET FOR  TIME STEP    30 STRESS PERIOD   33
  ------------------------------------------------------------------------------



     CUMULATIVE VOLUMES      L**3       RATES FOR THIS TIME STEP      L**3/T
     ------------------                 ------------------------

           IN:                                      IN:
           ---                                      ---
        INFILTRATION =    71398819.9277          INFILTRATION =           0.8475

          OUT:                                     OUT:
          ----                                     ----
              UZF ET =    70592450.8812                UZF ET =           0.8475
        UZF RECHARGE =       73224.0000          UZF RECHARGE =       0.0000E+00

            IN - OUT =      733145.0466              IN - OUT =       0.0000E+00

          STORAGE:                                 STORAGE:
          --------                                 --------
      STORAGE CHANGE =      733145.3167        STORAGE CHANGE =       1.8259E-15

 PERCENT DISCREPANCY IS DIFFERENCE BETWEEN IN-OUT MINUS CHANGE IN STORAGE
 DIVIDED BY THE AVERAGE OF IN AND OUT TIMES 100

 PERCENT DISCREPANCY =          -0.00     PERCENT DISCREPANCY =           0.00






1
  VOLUMETRIC BUDGET FOR ENTIRE MODEL AT END OF TIME STEP   30, STRESS PERIOD  33
  ------------------------------------------------------------------------------

     CUMULATIVE VOLUMES      L**3       RATES FOR THIS TIME STEP      L**3/T
     ------------------                 ------------------------

           IN:                                      IN:
           ---                                      ---
             STORAGE     =    27333972.0000               STORAGE     =           0.1083
       CONSTANT HEAD     =           0.0000         CONSTANT HEAD     =           0.0000
     HEAD DEP BOUNDS     =    24103850.0000       HEAD DEP BOUNDS     =           0.2864
      STREAM LEAKAGE     =   990596416.0000        STREAM LEAKAGE     =          12.0393
        UZF RECHARGE     =       73223.9531          UZF RECHARGE     =           0.0000
               GW ET     =           0.0000                 GW ET     =           0.0000
     SURFACE LEAKAGE     =           0.0000       SURFACE LEAKAGE     =           0.0000

                TOTAL IN =  1042107456.0000                  TOTAL IN =          12.4339

          OUT:                                     OUT:
          ----                                     ----
             STORAGE     =    84959104.0000               STORAGE     =           1.0991
       CONSTANT HEAD     =           0.0000         CONSTANT HEAD     =           0.0000
     HEAD DEP BOUNDS     =    24172156.0000       HEAD DEP BOUNDS     =           0.2869
      STREAM LEAKAGE     =   932992064.0000        STREAM LEAKAGE     =          11.0482
        UZF RECHARGE     =           0.0000          UZF RECHARGE     =           0.0000
               GW ET     =           0.0000                 GW ET     =           0.0000
     SURFACE LEAKAGE     =           0.0000       SURFACE LEAKAGE     =           0.0000

               TOTAL OUT =  1042123328.0000                 TOTAL OUT =          12.4342

                IN - OUT =      -15872.0000                  IN - OUT =      -2.7943E-04

     PERCENT DISCREPANCY =          -0.00         PERCENT DISCREPANCY =          -0.00






         TIME SUMMARY AT END OF TIME STEP   30 IN STRESS PERIOD   33
                    SECONDS     MINUTES      HOURS       DAYS        YEARS
                    -----------------------------------------------------------
   TIME STEP LENGTH  87667.      1461.1      24.352      1.0147     2.77799E-03
 STRESS PERIOD TIME 2.63000E+06  43833.      730.56      30.440     8.33397E-02
         TOTAL TIME 8.42463E+07 1.40410E+06  23402.      975.07      2.6696    
1
1
                            STRESS PERIOD NO.   34, LENGTH =   2630000.    
                            -----------------------------------------------

                              NUMBER OF TIME STEPS =    30

                               MULTIPLIER FOR DELT =     1.000

                            INITIAL TIME STEP SIZE =   87666.66    

 REUSING NON-PARAMETER GHB CELLS FROM LAST STRESS PERIOD

      2 GHB CELLS

 REUSING STREAM SEGMENT DATA FROM LAST STRESS PERIOD



            AREAL INFILTRATION RATE
 READING ON UNIT   19 WITH FORMAT: (FREE)              

            1           2           3           4           5           6           7           8           9          10
 ........................................................................................................................
   1   1.0000E-10  2.0000E-10   0.000       0.000       0.000       0.000       0.000       0.000       0.000       0.000    
   2   2.0000E-10  1.0000E-10  2.0000E-10   0.000       0.000      8.0000E-10  8.0000E-10  5.0000E-10   0.000       0.000    
   3    0.000      5.0000E-10  1.0000E-10  1.0000E-10  8.0000E-10  8.0000E-10  5.0000E-10  5.0000E-10   0.000       0.000    
   4   8.0000E-10  5.0000E-10  1.0000E-10  1.0000E-10  1.0000E-10  1.0000E-10  1.0000E-10  1.0000E-10  2.0000E-10   0.000    
   5   8.0000E-10  5.0000E-10  1.0000E-10  1.0000E-10  1.0000E-10  1.0000E-10  1.0000E-10  1.0000E-10  1.0000E-10  1.0000E-10
   6   8.0000E-10  5.0000E-10  5.0000E-10  2.0000E-10  2.0000E-10  1.0000E-10  1.0000E-10  1.0000E-10  1.0000E-10  5.0000E-10
   7   8.0000E-10  5.0000E-10  5.0000E-10  2.0000E-10  2.0000E-10  1.0000E-10  1.0000E-10  2.0000E-10  2.0000E-10   0.000    
   8    0.000      5.0000E-10  5.0000E-10  2.0000E-10  2.0000E-10  1.0000E-10  1.0000E-10  2.0000E-10  5.0000E-10   0.000    
   9    0.000      5.0000E-10  5.0000E-10  2.0000E-10  2.0000E-10  1.0000E-10  1.0000E-10  2.0000E-10  5.0000E-10   0.000    
  10    0.000      5.0000E-10  5.0000E-10  2.0000E-10  2.0000E-10  1.0000E-10  1.0000E-10  2.0000E-10  5.0000E-10  8.0000E-10
  11    0.000      1.0000E-10  1.0000E-10  1.0000E-10  1.0000E-10  1.0000E-10  1.0000E-10  2.0000E-10  5.0000E-10   0.000    
  12   1.0000E-10  1.0000E-10  1.0000E-10  1.0000E-10  1.0000E-10  1.0000E-10  1.0000E-10  1.0000E-10  2.0000E-10   0.000    
  13   1.0000E-10  1.0000E-10  2.0000E-10  2.0000E-10  2.0000E-10  2.0000E-10  2.0000E-10  1.0000E-10  1.0000E-10   0.000    
  14    0.000      2.0000E-10  5.0000E-10  5.0000E-10  5.0000E-10  5.0000E-10  5.0000E-10  2.0000E-10  1.0000E-10   0.000    
  15    0.000       0.000      8.0000E-10  8.0000E-10  8.0000E-10  8.0000E-10   0.000       0.000       0.000       0.000    

                  ET RATE =  7.500000E-08

 USING ET EXTINCTION DEPTH FROM PREVIOUS STRESS PERIOD. CURRENT PERIOD IS:      34

 USING EXTINCTION WATER CONTENT FROM PREVIOUS STRESS PERIOD. CURRENT PERIOD IS:      34

 USING AIR ENTRY PRESSURE FROM PREVIOUS STRESS PERIOD. CURRENT PERIOD IS:      34

 USING ROOT PRESSURE HEAD FROM PREVIOUS STRESS PERIOD. CURRENT PERIOD IS:      34

 USING ROOT ACTIVITY FROM PREVIOUS STRESS PERIOD. CURRENT PERIOD IS:      34
 
 SOLVING FOR HEAD 
                                                   Max.-Head-Change                         Max.-Flux-Residual
  Residual-Control   Outer-Iter.   Inner-Iter.     Column Row Layer    Maximum-Head-Change  Column Row Layer    Maximum-Flux-Residual          L2-NORM 
          0                 1           2             1    1     1       0.2568256135E-02       1    1    1         0.1332499108E+00      0.2459346234E+00
          0                 2           2             1    1     1      -0.2498213825E-03       1    1    1        -0.1332499739E-01      0.2459346745E-01
          0                 3           1             1    1     1       0.1701190910E-04       1    1    1         0.9327501524E-03      0.1721544054E-02

    ------------------------------------------------
       NWT REQUIRED            3 OUTER ITERATIONS 
       AND A TOTAL OF          5 INNER ITERATIONS.
    ------------------------------------------------

 NO OUTPUT CONTROL FOR STRESS PERIOD   34   TIME STEP    1
 
 SOLVING FOR HEAD 
                                                   Max.-Head-Change                         Max.-Flux-Residual
  Residual-Control   Outer-Iter.   Inner-Iter.     Column Row Layer    Maximum-Head-Change  Column Row Layer    Maximum-Flux-Residual          L2-NORM 
          0                 1           2             1    1     1       0.2406086113E-02       1    1    1         0.1248256521E+00      0.2332955568E+00
          0                 2           2             1    1     1      -0.2340466379E-03       1    1    1        -0.1248256998E-01      0.2332955931E-01
          0                 3           1             1    1     1       0.1593770711E-04       1    1    1         0.8737802061E-03      0.1633068915E-02

    ------------------------------------------------
       NWT REQUIRED            3 OUTER ITERATIONS 
       AND A TOTAL OF          5 INNER ITERATIONS.
    ------------------------------------------------

 NO OUTPUT CONTROL FOR STRESS PERIOD   34   TIME STEP    2
 
 SOLVING FOR HEAD 
                                                   Max.-Head-Change                         Max.-Flux-Residual
  Residual-Control   Outer-Iter.   Inner-Iter.     Column Row Layer    Maximum-Head-Change  Column Row Layer    Maximum-Flux-Residual          L2-NORM 
          0                 1           2             2    1     1       0.2020259031E-02       2    1    1         0.1048583387E+00      0.2056422640E+00
          0                 2           2             2    1     1      -0.1965162317E-03       2    1    1        -0.1048584173E-01      0.2056423621E-01
          0                 3           1             2    1     1       0.1338202604E-04       2    1    1         0.7340091559E-03      0.1439497046E-02

    ------------------------------------------------
       NWT REQUIRED            3 OUTER ITERATIONS 
       AND A TOTAL OF          5 INNER ITERATIONS.
    ------------------------------------------------

 NO OUTPUT CONTROL FOR STRESS PERIOD   34   TIME STEP    3
 
 SOLVING FOR HEAD 
                                                   Max.-Head-Change                         Max.-Flux-Residual
  Residual-Control   Outer-Iter.   Inner-Iter.     Column Row Layer    Maximum-Head-Change  Column Row Layer    Maximum-Flux-Residual          L2-NORM 
          0                 1           2             2    1     1       0.2018493416E-02       2    1    1         0.1047660045E+00      0.2046890808E+00
          0                 2           2             2    1     1      -0.1963444847E-03       2    1    1        -0.1047660825E-01      0.2046891661E-01
          0                 3           1             2    1     1       0.1337033107E-04       2    1    1         0.7333628288E-03      0.1432824983E-02

    ------------------------------------------------
       NWT REQUIRED            3 OUTER ITERATIONS 
       AND A TOTAL OF          5 INNER ITERATIONS.
    ------------------------------------------------

 NO OUTPUT CONTROL FOR STRESS PERIOD   34   TIME STEP    4
 
 SOLVING FOR HEAD 
                                                   Max.-Head-Change                         Max.-Flux-Residual
  Residual-Control   Outer-Iter.   Inner-Iter.     Column Row Layer    Maximum-Head-Change  Column Row Layer    Maximum-Flux-Residual          L2-NORM 
          0                 1           2             2    1     1       0.2016742799E-02       2    1    1         0.1046744598E+00      0.2037865316E+00
          0                 2           2             2    1     1      -0.1961741964E-03       2    1    1        -0.1046745372E-01      0.2037866248E-01
          0                 3           1             2    1     1       0.1335873503E-04       2    1    1         0.7327220044E-03      0.1426507175E-02

    ------------------------------------------------
       NWT REQUIRED            3 OUTER ITERATIONS 
       AND A TOTAL OF          5 INNER ITERATIONS.
    ------------------------------------------------

 NO OUTPUT CONTROL FOR STRESS PERIOD   34   TIME STEP    5
 
 SOLVING FOR HEAD 
                                                   Max.-Head-Change                         Max.-Flux-Residual
  Residual-Control   Outer-Iter.   Inner-Iter.     Column Row Layer    Maximum-Head-Change  Column Row Layer    Maximum-Flux-Residual          L2-NORM 
          0                 1           2             2    1     1       0.2015006957E-02       2    1    1         0.1045836928E+00      0.2029363363E+00
          0                 2           2             2    1     1      -0.1960053455E-03       2    1    1        -0.1045837697E-01      0.2029364056E-01
          0                 3           1             2    1     1       0.1334723673E-04       2    1    1         0.7320866232E-03      0.1420566222E-02

    ------------------------------------------------
       NWT REQUIRED            3 OUTER ITERATIONS 
       AND A TOTAL OF          5 INNER ITERATIONS.
    ------------------------------------------------

 NO OUTPUT CONTROL FOR STRESS PERIOD   34   TIME STEP    6
 
 SOLVING FOR HEAD 
                                                   Max.-Head-Change                         Max.-Flux-Residual
  Residual-Control   Outer-Iter.   Inner-Iter.     Column Row Layer    Maximum-Head-Change  Column Row Layer    Maximum-Flux-Residual          L2-NORM 
          0                 1           2             2    1     1       0.2013285667E-02       2    1    1         0.1044936918E+00      0.2021284370E+00
          0                 2           2             2    1     1      -0.1958379102E-03       2    1    1        -0.1044937681E-01      0.2021285230E-01
          0                 3           1             2    1     1       0.1333583571E-04       2    1    1         0.7314566303E-03      0.1414902123E-02

    ------------------------------------------------
       NWT REQUIRED            3 OUTER ITERATIONS 
       AND A TOTAL OF          5 INNER ITERATIONS.
    ------------------------------------------------

 NO OUTPUT CONTROL FOR STRESS PERIOD   34   TIME STEP    7
 
 SOLVING FOR HEAD 
                                                   Max.-Head-Change                         Max.-Flux-Residual
  Residual-Control   Outer-Iter.   Inner-Iter.     Column Row Layer    Maximum-Head-Change  Column Row Layer    Maximum-Flux-Residual          L2-NORM 
          0                 1           2             2    1     1       0.2011578812E-02       2    1    1         0.1044044453E+00      0.2013722194E+00
          0                 2           2             2    1     1      -0.1956718788E-03       2    1    1        -0.1044045211E-01      0.2013723213E-01
          0                 3           1             2    1     1       0.1332452935E-04       2    1    1         0.7308318903E-03      0.1409606679E-02

    ------------------------------------------------
       NWT REQUIRED            3 OUTER ITERATIONS 
       AND A TOTAL OF          5 INNER ITERATIONS.
    ------------------------------------------------

 NO OUTPUT CONTROL FOR STRESS PERIOD   34   TIME STEP    8
 
 SOLVING FOR HEAD 
                                                   Max.-Head-Change                         Max.-Flux-Residual
  Residual-Control   Outer-Iter.   Inner-Iter.     Column Row Layer    Maximum-Head-Change  Column Row Layer    Maximum-Flux-Residual          L2-NORM 
          0                 1           2             2    1     1       0.2009886078E-02       2    1    1         0.1043159473E+00      0.2006518581E+00
          0                 2           2             2    1     1      -0.1955072214E-03       2    1    1        -0.1043160227E-01      0.2006519404E-01
          0                 3           1             2    1     1       0.1331331695E-04       2    1    1         0.7302124054E-03      0.1404564425E-02

    ------------------------------------------------
       NWT REQUIRED            3 OUTER ITERATIONS 
       AND A TOTAL OF          5 INNER ITERATIONS.
    ------------------------------------------------

 NO OUTPUT CONTROL FOR STRESS PERIOD   34   TIME STEP    9
 
 SOLVING FOR HEAD 
                                                   Max.-Head-Change                         Max.-Flux-Residual
  Residual-Control   Outer-Iter.   Inner-Iter.     Column Row Layer    Maximum-Head-Change  Column Row Layer    Maximum-Flux-Residual          L2-NORM 
          0                 1           2             2    1     1       0.2008207253E-02       2    1    1         0.1042281814E+00      0.1999615119E+00
          0                 2           2             2    1     1      -0.1953439163E-03       2    1    1        -0.1042282561E-01      0.1999615772E-01
          0                 3           1             2    1     1       0.1330219662E-04       2    1    1         0.7295980415E-03      0.1399731733E-02

    ------------------------------------------------
       NWT REQUIRED            3 OUTER ITERATIONS 
       AND A TOTAL OF          5 INNER ITERATIONS.
    ------------------------------------------------

 NO OUTPUT CONTROL FOR STRESS PERIOD   34   TIME STEP   10
 
 SOLVING FOR HEAD 
                                                   Max.-Head-Change                         Max.-Flux-Residual
  Residual-Control   Outer-Iter.   Inner-Iter.     Column Row Layer    Maximum-Head-Change  Column Row Layer    Maximum-Flux-Residual          L2-NORM 
          0                 1           2             2    1     1       0.2006542231E-02       2    1    1         0.1041411368E+00      0.1993115685E+00
          0                 2           2             2    1     1      -0.1951819546E-03       2    1    1        -0.1041412110E-01      0.1993116447E-01
          0                 3           1             2    1     1       0.1329116741E-04       2    1    1         0.7289887177E-03      0.1395182773E-02

    ------------------------------------------------
       NWT REQUIRED            3 OUTER ITERATIONS 
       AND A TOTAL OF          5 INNER ITERATIONS.
    ------------------------------------------------

 NO OUTPUT CONTROL FOR STRESS PERIOD   34   TIME STEP   11
 
 SOLVING FOR HEAD 
                                                   Max.-Head-Change                         Max.-Flux-Residual
  Residual-Control   Outer-Iter.   Inner-Iter.     Column Row Layer    Maximum-Head-Change  Column Row Layer    Maximum-Flux-Residual          L2-NORM 
          0                 1           2             2    1     1       0.2004890707E-02       2    1    1         0.1040548077E+00      0.1986919315E+00
          0                 2           2             2    1     1      -0.1950213055E-03       2    1    1        -0.1040548814E-01      0.1986920030E-01
          0                 3           1             2    1     1       0.1328022790E-04       2    1    1         0.7283844165E-03      0.1390845837E-02

    ------------------------------------------------
       NWT REQUIRED            3 OUTER ITERATIONS 
       AND A TOTAL OF          5 INNER ITERATIONS.
    ------------------------------------------------

 NO OUTPUT CONTROL FOR STRESS PERIOD   34   TIME STEP   12
 
 SOLVING FOR HEAD 
                                                   Max.-Head-Change                         Max.-Flux-Residual
  Residual-Control   Outer-Iter.   Inner-Iter.     Column Row Layer    Maximum-Head-Change  Column Row Layer    Maximum-Flux-Residual          L2-NORM 
          0                 1           2             2    1     1       0.2003252580E-02       2    1    1         0.1039691785E+00      0.1981009217E+00
          0                 2           2             2    1     1      -0.1948619594E-03       2    1    1        -0.1039692516E-01      0.1981009944E-01
          0                 3           1             2    1     1       0.1326937738E-04       2    1    1         0.7277850192E-03      0.1386708570E-02

    ------------------------------------------------
       NWT REQUIRED            3 OUTER ITERATIONS 
       AND A TOTAL OF          5 INNER ITERATIONS.
    ------------------------------------------------

 NO OUTPUT CONTROL FOR STRESS PERIOD   34   TIME STEP   13
 
 SOLVING FOR HEAD 
                                                   Max.-Head-Change                         Max.-Flux-Residual
  Residual-Control   Outer-Iter.   Inner-Iter.     Column Row Layer    Maximum-Head-Change  Column Row Layer    Maximum-Flux-Residual          L2-NORM 
          0                 1           2             2    1     1       0.2001627552E-02       2    1    1         0.1038842440E+00      0.1975367682E+00
          0                 2           2             2    1     1      -0.1947038881E-03       2    1    1        -0.1038843167E-01      0.1975368330E-01
          0                 3           1             2    1     1       0.1325861348E-04       2    1    1         0.7271904800E-03      0.1382758552E-02

    ------------------------------------------------
       NWT REQUIRED            3 OUTER ITERATIONS 
       AND A TOTAL OF          5 INNER ITERATIONS.
    ------------------------------------------------

 NO OUTPUT CONTROL FOR STRESS PERIOD   34   TIME STEP   14
 
 SOLVING FOR HEAD 
                                                   Max.-Head-Change                         Max.-Flux-Residual
  Residual-Control   Outer-Iter.   Inner-Iter.     Column Row Layer    Maximum-Head-Change  Column Row Layer    Maximum-Flux-Residual          L2-NORM 
          0                 1           2             2    1     1       0.2000015530E-02       2    1    1         0.1037999887E+00      0.1970008159E+00
          0                 2           2             2    1     1      -0.1945470815E-03       2    1    1        -0.1038000608E-01      0.1970008821E-01
          0                 3           1             2    1     1       0.1324793549E-04       2    1    1         0.7266006854E-03      0.1379015784E-02

    ------------------------------------------------
       NWT REQUIRED            3 OUTER ITERATIONS 
       AND A TOTAL OF          5 INNER ITERATIONS.
    ------------------------------------------------

 NO OUTPUT CONTROL FOR STRESS PERIOD   34   TIME STEP   15
 
 SOLVING FOR HEAD 
                                                   Max.-Head-Change                         Max.-Flux-Residual
  Residual-Control   Outer-Iter.   Inner-Iter.     Column Row Layer    Maximum-Head-Change  Column Row Layer    Maximum-Flux-Residual          L2-NORM 
          0                 1           2             2    1     1       0.1998416320E-02       2    1    1         0.1037164076E+00      0.1964888027E+00
          0                 2           2             2    1     1      -0.1943915205E-03       2    1    1        -0.1037164790E-01      0.1964888697E-01
          0                 3           1             2    1     1       0.1323734223E-04       2    1    1         0.7260156006E-03      0.1375422496E-02

    ------------------------------------------------
       NWT REQUIRED            3 OUTER ITERATIONS 
       AND A TOTAL OF          5 INNER ITERATIONS.
    ------------------------------------------------

 NO OUTPUT CONTROL FOR STRESS PERIOD   34   TIME STEP   16
 
 SOLVING FOR HEAD 
                                                   Max.-Head-Change                         Max.-Flux-Residual
  Residual-Control   Outer-Iter.   Inner-Iter.     Column Row Layer    Maximum-Head-Change  Column Row Layer    Maximum-Flux-Residual          L2-NORM 
          0                 1           2             2    1     1       0.1996807878E-02       2    1    1         0.1036323548E+00      0.1959958482E+00
          0                 2           2             2    1     1      -0.1942350625E-03       2    1    1        -0.1036324258E-01      0.1959959195E-01
          0                 3           1             2    1     1       0.1322668791E-04       2    1    1         0.7254272295E-03      0.1371973689E-02

    ------------------------------------------------
       NWT REQUIRED            3 OUTER ITERATIONS 
       AND A TOTAL OF          5 INNER ITERATIONS.
    ------------------------------------------------

 NO OUTPUT CONTROL FOR STRESS PERIOD   34   TIME STEP   17
 
 SOLVING FOR HEAD 
                                                   Max.-Head-Change                         Max.-Flux-Residual
  Residual-Control   Outer-Iter.   Inner-Iter.     Column Row Layer    Maximum-Head-Change  Column Row Layer    Maximum-Flux-Residual          L2-NORM 
          0                 1           2             2    1     1       0.1995233687E-02       2    1    1         0.1035500955E+00      0.1955231473E+00
          0                 2           2             2    1     1      -0.1940819359E-03       2    1    1        -0.1035501661E-01      0.1955232060E-01
          0                 3           1             2    1     1       0.1321626080E-04       2    1    1         0.7248514061E-03      0.1368663097E-02

    ------------------------------------------------
       NWT REQUIRED            3 OUTER ITERATIONS 
       AND A TOTAL OF          5 INNER ITERATIONS.
    ------------------------------------------------

 NO OUTPUT CONTROL FOR STRESS PERIOD   34   TIME STEP   18
 
 SOLVING FOR HEAD 
                                                   Max.-Head-Change                         Max.-Flux-Residual
  Residual-Control   Outer-Iter.   Inner-Iter.     Column Row Layer    Maximum-Head-Change  Column Row Layer    Maximum-Flux-Residual          L2-NORM 
          0                 1           2             2    1     1       0.1993671754E-02       2    1    1         0.1034684760E+00      0.1950722347E+00
          0                 2           2             2    1     1      -0.1939300021E-03       2    1    1        -0.1034685462E-01      0.1950723009E-01
          0                 3           1             2    1     1       0.1320591510E-04       2    1    1         0.7242800819E-03      0.1365506719E-02

    ------------------------------------------------
       NWT REQUIRED            3 OUTER ITERATIONS 
       AND A TOTAL OF          5 INNER ITERATIONS.
    ------------------------------------------------

 NO OUTPUT CONTROL FOR STRESS PERIOD   34   TIME STEP   19
 
 SOLVING FOR HEAD 
                                                   Max.-Head-Change                         Max.-Flux-Residual
  Residual-Control   Outer-Iter.   Inner-Iter.     Column Row Layer    Maximum-Head-Change  Column Row Layer    Maximum-Flux-Residual          L2-NORM 
          0                 1           2             2    1     1       0.1992121898E-02       2    1    1         0.1033874920E+00      0.1946394197E+00
          0                 2           2             2    1     1      -0.1937792420E-03       2    1    1        -0.1033875616E-01      0.1946394949E-01
          0                 3           1             2    1     1       0.1319564821E-04       2    1    1         0.7237131639E-03      0.1362476926E-02

    ------------------------------------------------
       NWT REQUIRED            3 OUTER ITERATIONS 
       AND A TOTAL OF          5 INNER ITERATIONS.
    ------------------------------------------------

 NO OUTPUT CONTROL FOR STRESS PERIOD   34   TIME STEP   20
 
 SOLVING FOR HEAD 
                                                   Max.-Head-Change                         Max.-Flux-Residual
  Residual-Control   Outer-Iter.   Inner-Iter.     Column Row Layer    Maximum-Head-Change  Column Row Layer    Maximum-Flux-Residual          L2-NORM 
          0                 1           2             2    1     1       0.1990583943E-02       2    1    1         0.1033071342E+00      0.1942242250E+00
          0                 2           2             2    1     1      -0.1936296404E-03       2    1    1        -0.1033072033E-01      0.1942242831E-01
          0                 3           1             2    1     1       0.1318546132E-04       2    1    1         0.7231506673E-03      0.1359571273E-02

    ------------------------------------------------
       NWT REQUIRED            3 OUTER ITERATIONS 
       AND A TOTAL OF          5 INNER ITERATIONS.
    ------------------------------------------------

 NO OUTPUT CONTROL FOR STRESS PERIOD   34   TIME STEP   21
 
 SOLVING FOR HEAD 
                                                   Max.-Head-Change                         Max.-Flux-Residual
  Residual-Control   Outer-Iter.   Inner-Iter.     Column Row Layer    Maximum-Head-Change  Column Row Layer    Maximum-Flux-Residual          L2-NORM 
          0                 1           2             2    1     1       0.1989057716E-02       2    1    1         0.1032273935E+00      0.1938239906E+00
          0                 2           2             2    1     1      -0.1934811796E-03       2    1    1        -0.1032274623E-01      0.1938240384E-01
          0                 3           1             2    1     1       0.1317535135E-04       2    1    1         0.7225924819E-03      0.1356769138E-02

    ------------------------------------------------
       NWT REQUIRED            3 OUTER ITERATIONS 
       AND A TOTAL OF          5 INNER ITERATIONS.
    ------------------------------------------------

 NO OUTPUT CONTROL FOR STRESS PERIOD   34   TIME STEP   22
 
 SOLVING FOR HEAD 
                                                   Max.-Head-Change                         Max.-Flux-Residual
  Residual-Control   Outer-Iter.   Inner-Iter.     Column Row Layer    Maximum-Head-Change  Column Row Layer    Maximum-Flux-Residual          L2-NORM 
          0                 1           2             2    1     1       0.1987543145E-02       2    1    1         0.1031482608E+00      0.1934426911E+00
          0                 2           2             2    1     1      -0.1933338522E-03       2    1    1        -0.1031483290E-01      0.1934427529E-01
          0                 3           1             2    1     1       0.1316531900E-04       2    1    1         0.7220385481E-03      0.1354101272E-02

    ------------------------------------------------
       NWT REQUIRED            3 OUTER ITERATIONS 
       AND A TOTAL OF          5 INNER ITERATIONS.
    ------------------------------------------------

 NO OUTPUT CONTROL FOR STRESS PERIOD   34   TIME STEP   23
 
 SOLVING FOR HEAD 
                                                   Max.-Head-Change                         Max.-Flux-Residual
  Residual-Control   Outer-Iter.   Inner-Iter.     Column Row Layer    Maximum-Head-Change  Column Row Layer    Maximum-Flux-Residual          L2-NORM 
          0                 1           2             2    1     1       0.1986018095E-02       2    1    1         0.1030685960E+00      0.1930690487E+00
          0                 2           2             2    1     1      -0.1931855058E-03       2    1    1        -0.1030686637E-01      0.1930691034E-01
          0                 3           1             2    1     1       0.1315521731E-04       2    1    1         0.7214809002E-03      0.1351486690E-02

    ------------------------------------------------
       NWT REQUIRED            3 OUTER ITERATIONS 
       AND A TOTAL OF          5 INNER ITERATIONS.
    ------------------------------------------------

 NO OUTPUT CONTROL FOR STRESS PERIOD   34   TIME STEP   24
 
 SOLVING FOR HEAD 
                                                   Max.-Head-Change                         Max.-Flux-Residual
  Residual-Control   Outer-Iter.   Inner-Iter.     Column Row Layer    Maximum-Head-Change  Column Row Layer    Maximum-Flux-Residual          L2-NORM 
          0                 1           2             2    1     1       0.1984526186E-02       2    1    1         0.1029906609E+00      0.1927121557E+00
          0                 2           2             2    1     1      -0.1930403831E-03       2    1    1        -0.1029907282E-01      0.1927122188E-01
          0                 3           1             2    1     1       0.1314533526E-04       2    1    1         0.7209353557E-03      0.1348986370E-02

    ------------------------------------------------
       NWT REQUIRED            3 OUTER ITERATIONS 
       AND A TOTAL OF          5 INNER ITERATIONS.
    ------------------------------------------------

 NO OUTPUT CONTROL FOR STRESS PERIOD   34   TIME STEP   25
 
 SOLVING FOR HEAD 
                                                   Max.-Head-Change                         Max.-Flux-Residual
  Residual-Control   Outer-Iter.   Inner-Iter.     Column Row Layer    Maximum-Head-Change  Column Row Layer    Maximum-Flux-Residual          L2-NORM 
          0                 1           2             2    1     1       0.1983045335E-02       2    1    1         0.1029133076E+00      0.1923748268E+00
          0                 2           2             2    1     1      -0.1928963361E-03       2    1    1        -0.1029133746E-01      0.1923748779E-01
          0                 3           1             2    1     1       0.1313552610E-04       2    1    1         0.7203938720E-03      0.1346624759E-02

    ------------------------------------------------
       NWT REQUIRED            3 OUTER ITERATIONS 
       AND A TOTAL OF          5 INNER ITERATIONS.
    ------------------------------------------------

 NO OUTPUT CONTROL FOR STRESS PERIOD   34   TIME STEP   26
 
 SOLVING FOR HEAD 
                                                   Max.-Head-Change                         Max.-Flux-Residual
  Residual-Control   Outer-Iter.   Inner-Iter.     Column Row Layer    Maximum-Head-Change  Column Row Layer    Maximum-Flux-Residual          L2-NORM 
          0                 1           2             2    1     1       0.1981575482E-02       2    1    1         0.1028365277E+00      0.1920428906E+00
          0                 2           2             2    1     1      -0.1927533590E-03       2    1    1        -0.1028365943E-01      0.1920429438E-01
          0                 3           1             2    1     1       0.1312578983E-04       2    1    1         0.7198564045E-03      0.1344301044E-02

    ------------------------------------------------
       NWT REQUIRED            3 OUTER ITERATIONS 
       AND A TOTAL OF          5 INNER ITERATIONS.
    ------------------------------------------------

 NO OUTPUT CONTROL FOR STRESS PERIOD   34   TIME STEP   27
 
 SOLVING FOR HEAD 
                                                   Max.-Head-Change                         Max.-Flux-Residual
  Residual-Control   Outer-Iter.   Inner-Iter.     Column Row Layer    Maximum-Head-Change  Column Row Layer    Maximum-Flux-Residual          L2-NORM 
          0                 1           2             2    1     1       0.1980094497E-02       2    1    1         0.1027591812E+00      0.1917208899E+00
          0                 2           2             2    1     1      -0.1926092991E-03       2    1    1        -0.1027592474E-01      0.1917209443E-01
          0                 3           1             2    1     1       0.1311598020E-04       2    1    1         0.7193149852E-03      0.1342047131E-02

    ------------------------------------------------
       NWT REQUIRED            3 OUTER ITERATIONS 
       AND A TOTAL OF          5 INNER ITERATIONS.
    ------------------------------------------------

 NO OUTPUT CONTROL FOR STRESS PERIOD   34   TIME STEP   28
 
 SOLVING FOR HEAD 
                                                   Max.-Head-Change                         Max.-Flux-Residual
  Residual-Control   Outer-Iter.   Inner-Iter.     Column Row Layer    Maximum-Head-Change  Column Row Layer    Maximum-Flux-Residual          L2-NORM 
          0                 1           2             2    1     1       0.1978646021E-02       2    1    1         0.1026835311E+00      0.1914146879E+00
          0                 2           2             2    1     1      -0.1924684007E-03       2    1    1        -0.1026835968E-01      0.1914147364E-01
          0                 3           1             2    1     1       0.1310638523E-04       2    1    1         0.7187854117E-03      0.1339903532E-02

    ------------------------------------------------
       NWT REQUIRED            3 OUTER ITERATIONS 
       AND A TOTAL OF          5 INNER ITERATIONS.
    ------------------------------------------------

 NO OUTPUT CONTROL FOR STRESS PERIOD   34   TIME STEP   29
 
 SOLVING FOR HEAD 
                                                   Max.-Head-Change                         Max.-Flux-Residual
  Residual-Control   Outer-Iter.   Inner-Iter.     Column Row Layer    Maximum-Head-Change  Column Row Layer    Maximum-Flux-Residual          L2-NORM 
          0                 1           2             2    1     1       0.1977208075E-02       2    1    1         0.1026084297E+00      0.1911162174E+00
          0                 2           2             2    1     1      -0.1923285273E-03       2    1    1        -0.1026084950E-01      0.1911162789E-01
          0                 3           1             2    1     1       0.1309686031E-04       2    1    1         0.7182597046E-03      0.1337814440E-02

    ------------------------------------------------
       NWT REQUIRED            3 OUTER ITERATIONS 
       AND A TOTAL OF          5 INNER ITERATIONS.
    ------------------------------------------------

 NO OUTPUT CONTROL FOR STRESS PERIOD   34   TIME STEP   30



 STREAM LISTING     PERIOD     34   STEP       30

 LAYER ROW COL. STREAM  RCH.  FLOW INTO     FLOW TO   FLOW OUT OF   OVRLND.     DIRECT     STREAM       STREAM     STREAM     STREAM   STREAMBED  STREAMBED
                SEG.NO.  NO.  STRM. RCH.    AQUIFER    STRM. RCH.    RUNOFF     PRECIP       ET          HEAD       DEPTH      WIDTH   CONDCTNC.   GRADIENT

   1    1    1     1     1    3.5249E+01  2.8720E-01   3.4962E+01  0.000E+00  0.000E+00  0.000E+00  1.09434E+03  1.294E+00  1.486E+01  6.688E-02  1.431E+00
   1    2    2     1     2    3.4962E+01  4.4466E-01   3.4517E+01  0.000E+00  0.000E+00  0.000E+00  1.08935E+03  1.291E+00  1.480E+01  1.036E-01  1.430E+00
   1    3    3     1     3    3.4517E+01  3.7911E-01   3.4138E+01  0.000E+00  0.000E+00  0.000E+00  1.08371E+03  1.288E+00  1.474E+01  8.841E-02  1.429E+00
   1    3    4     1     4    3.4138E+01  3.4901E-01   3.3789E+01  0.000E+00  0.000E+00  0.000E+00  1.07869E+03  1.285E+00  1.468E+01  8.145E-02  1.428E+00
   1    4    5     2     1    3.1789E+01  3.4244E-01   3.1446E+01  0.000E+00  0.000E+00  0.000E+00  1.07332E+03  1.390E+00  1.200E+01  7.800E-02  1.463E+00
   1    5    6     2     2    3.1446E+01  2.6294E-01   3.1184E+01  0.000E+00  0.000E+00  0.000E+00  1.06789E+03  1.382E+00  1.200E+01  6.000E-02  1.461E+00
   1    6    6     2     3    3.1184E+01  2.6252E-01   3.0921E+01  0.000E+00  0.000E+00  0.000E+00  1.06317E+03  1.375E+00  1.200E+01  6.000E-02  1.458E+00
   1    7    6     2     4    3.0921E+01  2.6210E-01   3.0659E+01  0.000E+00  0.000E+00  0.000E+00  1.05844E+03  1.368E+00  1.200E+01  6.000E-02  1.456E+00
   1    8    6     2     5    3.0659E+01  2.6168E-01   3.0397E+01  0.000E+00  0.000E+00  0.000E+00  1.05372E+03  1.361E+00  1.200E+01  6.000E-02  1.454E+00
   1    3    5     3     1    2.0000E+00  2.8252E-01   1.7175E+00  0.000E+00  0.000E+00  0.000E+00  1.07555E+03  1.909E+00  9.636E+00  7.227E-02  1.955E+00
   1    3    6     3     2    1.7175E+00  2.4905E-01   1.4684E+00  0.000E+00  0.000E+00  0.000E+00  1.07264E+03  1.727E+00  8.909E+00  6.682E-02  1.864E+00
   1    3    7     3     3    1.4684E+00  1.9718E-01   1.2712E+00  0.000E+00  0.000E+00  0.000E+00  1.06987E+03  1.555E+00  8.218E+00  5.547E-02  1.777E+00
   1    4    8     3     4    1.2712E+00  2.2567E-01   1.0456E+00  0.000E+00  0.000E+00  0.000E+00  1.06682E+03  1.364E+00  7.455E+00  6.709E-02  1.682E+00
   1    5    8     3     5    1.0456E+00  1.5790E-01   8.8768E-01  0.000E+00  0.000E+00  0.000E+00  1.06362E+03  1.164E+00  6.655E+00  4.991E-02  1.582E+00
   1    6    8     3     6    8.8768E-01  5.5980E-02   8.3170E-01  0.000E+00  0.000E+00  0.000E+00  1.06158E+03  1.036E+00  6.145E+00  1.844E-02  1.518E+00
   1    5   10     4     1    1.0000E+01  9.0919E-02   9.9091E+00  0.000E+00  0.000E+00  0.000E+00  1.07836E+03  6.368E-01  1.000E+01  2.500E-02  1.212E+00
   1    5    9     4     2    9.9091E+00  1.8158E-01   9.7275E+00  0.000E+00  0.000E+00  0.000E+00  1.07154E+03  6.315E-01  1.000E+01  5.000E-02  1.211E+00
   1    6    8     4     3    9.7275E+00  1.2689E-01   9.6006E+00  0.000E+00  0.000E+00  0.000E+00  1.06381E+03  6.256E-01  1.000E+01  3.500E-02  1.209E+00
   1    6    8     5     1    1.0432E+01  2.2686E-01   1.0205E+01  0.000E+00  0.000E+00  0.000E+00  1.05868E+03  6.790E-01  1.542E+01  6.166E-02  1.226E+00
   1    7    7     5     2    1.0205E+01  2.7894E-01   9.9265E+00  0.000E+00  0.000E+00  0.000E+00  1.05417E+03  6.732E-01  1.519E+01  7.594E-02  1.224E+00
   1    8    7     5     3    9.9265E+00  1.9221E-01   9.7343E+00  0.000E+00  0.000E+00  0.000E+00  1.04992E+03  6.676E-01  1.497E+01  5.241E-02  1.223E+00
   1    8    6     5     4    9.7343E+00  1.3577E-01   9.5985E+00  0.000E+00  0.000E+00  0.000E+00  1.04691E+03  6.637E-01  1.482E+01  3.706E-02  1.221E+00
   1    9    6     6     1    9.5985E+00  2.2097E-01   9.3776E+00  0.000E+00  0.000E+00  0.000E+00  1.04341E+03  6.828E-01  1.200E+01  6.000E-02  1.228E+00
   1   10    7     6     2    9.3776E+00  2.2039E-01   9.1572E+00  0.000E+00  0.000E+00  0.000E+00  1.03885E+03  6.732E-01  1.200E+01  6.000E-02  1.224E+00
   1   11    7     6     3    9.1572E+00  2.1981E-01   8.9374E+00  0.000E+00  0.000E+00  0.000E+00  1.03430E+03  6.636E-01  1.200E+01  6.000E-02  1.221E+00
   1   12    7     6     4    8.9374E+00  2.1923E-01   8.7181E+00  0.000E+00  0.000E+00  0.000E+00  1.02974E+03  6.539E-01  1.200E+01  6.000E-02  1.218E+00
   1   13    7     6     5    8.7181E+00 -1.1031E-01   8.8284E+00  0.000E+00  0.000E+00  0.000E+00  1.02656E+03  6.514E-01  1.200E+01  2.400E-01 -1.532E-01
   1   14    9     7     1    1.5000E+02  1.3449E+00   1.4866E+02  0.000E+00  0.000E+00  0.000E+00  1.03987E+03  2.288E+00  5.529E+01  5.593E-01  8.016E-01
   1   13    8     7     2    1.4866E+02  1.8502E+00   1.4680E+02  0.000E+00  0.000E+00  0.000E+00  1.03478E+03  2.279E+00  5.526E+01  6.148E-01  1.003E+00
   1   13    7     7     3    1.4680E+02  1.4908E+00   1.4531E+02  0.000E+00  0.000E+00  0.000E+00  1.02969E+03  2.270E+00  5.522E+01  5.584E-01  8.898E-01
   1   13    6     8     1    1.5414E+02  8.4285E-01   1.5330E+02  0.000E+00  0.000E+00  0.000E+00  1.02472E+03  2.843E+00  4.122E+01  4.201E-01  6.688E-01
   1   13    5     8     2    1.5330E+02  1.1254E-01   1.5319E+02  0.000E+00  0.000E+00  0.000E+00  1.01846E+03  2.840E+00  4.117E+01  4.196E-01  8.941E-02
   1   13    4     8     3    1.5319E+02 -2.6388E+00   1.5583E+02  0.000E+00  0.000E+00  0.000E+00  1.01222E+03  2.848E+00  4.130E+01  4.209E+00 -2.090E-01
   1   13    3     8     4    1.5583E+02 -3.7267E+00   1.5955E+02  0.000E+00  0.000E+00  0.000E+00  1.00600E+03  2.870E+00  4.162E+01  4.241E+00 -2.929E-01
   1   13    2     8     5    1.5955E+02 -2.5928E+00   1.6215E+02  0.000E+00  0.000E+00  0.000E+00  9.99767E+02  2.892E+00  4.193E+01  4.273E+00 -2.023E-01
   1   13    1     8     6    1.6215E+02 -1.9792E+00   1.6412E+02  0.000E+00  0.000E+00  0.000E+00  9.94782E+02  2.907E+00  4.215E+01  2.577E+00 -2.560E-01
   1    8    6     9     1    3.0397E+01  0.0000E+00   3.0397E+01  0.000E+00  0.000E+00  0.000E+00  1.08317E+03  4.415E+00  4.000E+00  0.000E+00  2.472E+00
   1    8    5     9     2    3.0397E+01  0.0000E+00   3.0397E+01  0.000E+00  0.000E+00  0.000E+00  1.08267E+03  4.415E+00  4.000E+00  0.000E+00  2.472E+00





UNSATURATED ZONE PACKAGE VOLUMETRIC BUDGET FOR  TIME STEP    30 STRESS PERIOD   34
  ------------------------------------------------------------------------------



     CUMULATIVE VOLUMES      L**3       RATES FOR THIS TIME STEP      L**3/T
     ------------------                 ------------------------

           IN:                                      IN:
           ---                                      ---
        INFILTRATION =    73627744.8005          INFILTRATION =           0.8475

          OUT:                                     OUT:
          ----                                     ----
              UZF ET =    72821375.7539                UZF ET =           0.8475
        UZF RECHARGE =       73224.0000          UZF RECHARGE =       0.0000E+00

            IN - OUT =      733145.0466              IN - OUT =       0.0000E+00

          STORAGE:                                 STORAGE:
          --------                                 --------
      STORAGE CHANGE =      733145.3167        STORAGE CHANGE =      -4.1498E-16

 PERCENT DISCREPANCY IS DIFFERENCE BETWEEN IN-OUT MINUS CHANGE IN STORAGE
 DIVIDED BY THE AVERAGE OF IN AND OUT TIMES 100

 PERCENT DISCREPANCY =           0.00     PERCENT DISCREPANCY =           0.00






1
  VOLUMETRIC BUDGET FOR ENTIRE MODEL AT END OF TIME STEP   30, STRESS PERIOD  34
  ------------------------------------------------------------------------------

     CUMULATIVE VOLUMES      L**3       RATES FOR THIS TIME STEP      L**3/T
     ------------------                 ------------------------

           IN:                                      IN:
           ---                                      ---
             STORAGE     =    27636650.0000               STORAGE     =           0.1024
       CONSTANT HEAD     =           0.0000         CONSTANT HEAD     =           0.0000
     HEAD DEP BOUNDS     =    24857030.0000       HEAD DEP BOUNDS     =           0.2864
      STREAM LEAKAGE     =  1021604992.0000        STREAM LEAKAGE     =          11.7748
        UZF RECHARGE     =       73223.9531          UZF RECHARGE     =           0.0000
               GW ET     =           0.0000                 GW ET     =           0.0000
     SURFACE LEAKAGE     =           0.0000       SURFACE LEAKAGE     =           0.0000

                TOTAL IN =  1074171904.0000                  TOTAL IN =          12.1635

          OUT:                                     OUT:
          ----                                     ----
             STORAGE     =    87213104.0000               STORAGE     =           0.8291
       CONSTANT HEAD     =           0.0000         CONSTANT HEAD     =           0.0000
     HEAD DEP BOUNDS     =    24926716.0000       HEAD DEP BOUNDS     =           0.2869
      STREAM LEAKAGE     =   962048064.0000        STREAM LEAKAGE     =          11.0478
        UZF RECHARGE     =           0.0000          UZF RECHARGE     =           0.0000
               GW ET     =           0.0000                 GW ET     =           0.0000
     SURFACE LEAKAGE     =           0.0000       SURFACE LEAKAGE     =           0.0000

               TOTAL OUT =  1074187904.0000                 TOTAL OUT =          12.1637

                IN - OUT =      -16000.0000                  IN - OUT =      -2.0313E-04

     PERCENT DISCREPANCY =          -0.00         PERCENT DISCREPANCY =          -0.00






         TIME SUMMARY AT END OF TIME STEP   30 IN STRESS PERIOD   34
                    SECONDS     MINUTES      HOURS       DAYS        YEARS
                    -----------------------------------------------------------
   TIME STEP LENGTH  87667.      1461.1      24.352      1.0147     2.77799E-03
 STRESS PERIOD TIME 2.63000E+06  43833.      730.56      30.440     8.33397E-02
         TOTAL TIME 8.68762E+07 1.44794E+06  24132.      1005.5      2.7529    
1
1
                            STRESS PERIOD NO.   35, LENGTH =   2630000.    
                            -----------------------------------------------

                              NUMBER OF TIME STEPS =    30

                               MULTIPLIER FOR DELT =     1.000

                            INITIAL TIME STEP SIZE =   87666.66    

 REUSING NON-PARAMETER GHB CELLS FROM LAST STRESS PERIOD

      2 GHB CELLS

 REUSING STREAM SEGMENT DATA FROM LAST STRESS PERIOD



            AREAL INFILTRATION RATE
 READING ON UNIT   19 WITH FORMAT: (FREE)              

            1           2           3           4           5           6           7           8           9          10
 ........................................................................................................................
   1   1.0000E-10  2.0000E-10   0.000       0.000       0.000       0.000       0.000       0.000       0.000       0.000    
   2   2.0000E-10  1.0000E-10  2.0000E-10   0.000       0.000      8.0000E-10  8.0000E-10  5.0000E-10   0.000       0.000    
   3    0.000      5.0000E-10  1.0000E-10  1.0000E-10  8.0000E-10  8.0000E-10  5.0000E-10  5.0000E-10   0.000       0.000    
   4   8.0000E-10  5.0000E-10  1.0000E-10  1.0000E-10  1.0000E-10  1.0000E-10  1.0000E-10  1.0000E-10  2.0000E-10   0.000    
   5   8.0000E-10  5.0000E-10  1.0000E-10  1.0000E-10  1.0000E-10  1.0000E-10  1.0000E-10  1.0000E-10  1.0000E-10  1.0000E-10
   6   8.0000E-10  5.0000E-10  5.0000E-10  2.0000E-10  2.0000E-10  1.0000E-10  1.0000E-10  1.0000E-10  1.0000E-10  5.0000E-10
   7   8.0000E-10  5.0000E-10  5.0000E-10  2.0000E-10  2.0000E-10  1.0000E-10  1.0000E-10  2.0000E-10  2.0000E-10   0.000    
   8    0.000      5.0000E-10  5.0000E-10  2.0000E-10  2.0000E-10  1.0000E-10  1.0000E-10  2.0000E-10  5.0000E-10   0.000    
   9    0.000      5.0000E-10  5.0000E-10  2.0000E-10  2.0000E-10  1.0000E-10  1.0000E-10  2.0000E-10  5.0000E-10   0.000    
  10    0.000      5.0000E-10  5.0000E-10  2.0000E-10  2.0000E-10  1.0000E-10  1.0000E-10  2.0000E-10  5.0000E-10  8.0000E-10
  11    0.000      1.0000E-10  1.0000E-10  1.0000E-10  1.0000E-10  1.0000E-10  1.0000E-10  2.0000E-10  5.0000E-10   0.000    
  12   1.0000E-10  1.0000E-10  1.0000E-10  1.0000E-10  1.0000E-10  1.0000E-10  1.0000E-10  1.0000E-10  2.0000E-10   0.000    
  13   1.0000E-10  1.0000E-10  2.0000E-10  2.0000E-10  2.0000E-10  2.0000E-10  2.0000E-10  1.0000E-10  1.0000E-10   0.000    
  14    0.000      2.0000E-10  5.0000E-10  5.0000E-10  5.0000E-10  5.0000E-10  5.0000E-10  2.0000E-10  1.0000E-10   0.000    
  15    0.000       0.000      8.0000E-10  8.0000E-10  8.0000E-10  8.0000E-10   0.000       0.000       0.000       0.000    

                  ET RATE =  5.000000E-09

 USING ET EXTINCTION DEPTH FROM PREVIOUS STRESS PERIOD. CURRENT PERIOD IS:      35

 USING EXTINCTION WATER CONTENT FROM PREVIOUS STRESS PERIOD. CURRENT PERIOD IS:      35

 USING AIR ENTRY PRESSURE FROM PREVIOUS STRESS PERIOD. CURRENT PERIOD IS:      35

 USING ROOT PRESSURE HEAD FROM PREVIOUS STRESS PERIOD. CURRENT PERIOD IS:      35

 USING ROOT ACTIVITY FROM PREVIOUS STRESS PERIOD. CURRENT PERIOD IS:      35
 
 SOLVING FOR HEAD 
                                                   Max.-Head-Change                         Max.-Flux-Residual
  Residual-Control   Outer-Iter.   Inner-Iter.     Column Row Layer    Maximum-Head-Change  Column Row Layer    Maximum-Flux-Residual          L2-NORM 
          0                 1           2             2    1     1       0.1975780409E-02       2    1    1         0.1025338744E+00      0.1908314128E+00
          0                 2           2             2    1     1      -0.1921896536E-03       2    1    1        -0.1025339392E-01      0.1908314580E-01
          0                 3           1             2    1     1       0.1308740380E-04       2    1    1         0.7177378137E-03      0.1335821898E-02

    ------------------------------------------------
       NWT REQUIRED            3 OUTER ITERATIONS 
       AND A TOTAL OF          5 INNER ITERATIONS.
    ------------------------------------------------

 NO OUTPUT CONTROL FOR STRESS PERIOD   35   TIME STEP    1
 
 SOLVING FOR HEAD 
                                                   Max.-Head-Change                         Max.-Flux-Residual
  Residual-Control   Outer-Iter.   Inner-Iter.     Column Row Layer    Maximum-Head-Change  Column Row Layer    Maximum-Flux-Residual          L2-NORM 
          0                 1           2             2    1     1       0.1973153121E-02       2    1    1         0.1024587150E+00      0.1775988497E+00
          0                 2           2             2    1     1      -0.1919341423E-03       2    1    1        -0.1024588139E-01      0.1775989598E-01
          0                 3           1             2    1     1       0.1307000263E-04       2    1    1         0.7172119165E-03      0.1243192881E-02

    ------------------------------------------------
       NWT REQUIRED            3 OUTER ITERATIONS 
       AND A TOTAL OF          5 INNER ITERATIONS.
    ------------------------------------------------

 NO OUTPUT CONTROL FOR STRESS PERIOD   35   TIME STEP    2
 
 SOLVING FOR HEAD 
                                                   Max.-Head-Change                         Max.-Flux-Residual
  Residual-Control   Outer-Iter.   Inner-Iter.     Column Row Layer    Maximum-Head-Change  Column Row Layer    Maximum-Flux-Residual          L2-NORM 
          0                 1           2             2    1     1       0.1969617653E-02       2    1    1         0.1023236097E+00      0.1783543931E+00
          0                 2           2             2    1     1      -0.1915902723E-03       2    1    1        -0.1023237311E-01      0.1783545065E-01
          0                 3           1             2    1     1       0.1304658499E-04       2    1    1         0.7162663252E-03      0.1248481722E-02

    ------------------------------------------------
       NWT REQUIRED            3 OUTER ITERATIONS 
       AND A TOTAL OF          5 INNER ITERATIONS.
    ------------------------------------------------

 NO OUTPUT CONTROL FOR STRESS PERIOD   35   TIME STEP    3
 
 SOLVING FOR HEAD 
                                                   Max.-Head-Change                         Max.-Flux-Residual
  Residual-Control   Outer-Iter.   Inner-Iter.     Column Row Layer    Maximum-Head-Change  Column Row Layer    Maximum-Flux-Residual          L2-NORM 
          0                 1           2             2    1     1       0.1966107916E-02       2    1    1         0.1021402834E+00      0.1767616206E+00
          0                 2           2             2    1     1      -0.1912488690E-03       2    1    1        -0.1021404038E-01      0.1767617460E-01
          0                 3           1             2    1     1       0.1302333658E-04       2    1    1         0.7149830270E-03      0.1237342756E-02

    ------------------------------------------------
       NWT REQUIRED            3 OUTER ITERATIONS 
       AND A TOTAL OF          5 INNER ITERATIONS.
    ------------------------------------------------

 NO OUTPUT CONTROL FOR STRESS PERIOD   35   TIME STEP    4
 
 SOLVING FOR HEAD 
                                                   Max.-Head-Change                         Max.-Flux-Residual
  Residual-Control   Outer-Iter.   Inner-Iter.     Column Row Layer    Maximum-Head-Change  Column Row Layer    Maximum-Flux-Residual          L2-NORM 
          0                 1           2             2    1     1       0.1962602015E-02       2    1    1         0.1019571701E+00      0.1752400590E+00
          0                 2           2             2    1     1      -0.1909078385E-03       2    1    1        -0.1019572894E-01      0.1752401645E-01
          0                 3           1             2    1     1       0.1300011396E-04       2    1    1         0.7137012213E-03      0.1226681968E-02

    ------------------------------------------------
       NWT REQUIRED            3 OUTER ITERATIONS 
       AND A TOTAL OF          5 INNER ITERATIONS.
    ------------------------------------------------

 NO OUTPUT CONTROL FOR STRESS PERIOD   35   TIME STEP    5
 
 SOLVING FOR HEAD 
                                                   Max.-Head-Change                         Max.-Flux-Residual
  Residual-Control   Outer-Iter.   Inner-Iter.     Column Row Layer    Maximum-Head-Change  Column Row Layer    Maximum-Flux-Residual          L2-NORM 
          0                 1           2             2    1     1       0.1959143313E-02       2    1    1         0.1017765303E+00      0.1737876874E+00
          0                 2           2             2    1     1      -0.1905714002E-03       2    1    1        -0.1017766489E-01      0.1737878106E-01
          0                 3           1             2    1     1       0.1297720351E-04       2    1    1         0.7124367383E-03      0.1216517922E-02

    ------------------------------------------------
       NWT REQUIRED            3 OUTER ITERATIONS 
       AND A TOTAL OF          5 INNER ITERATIONS.
    ------------------------------------------------

 NO OUTPUT CONTROL FOR STRESS PERIOD   35   TIME STEP    6
 
 SOLVING FOR HEAD 
                                                   Max.-Head-Change                         Max.-Flux-Residual
  Residual-Control   Outer-Iter.   Inner-Iter.     Column Row Layer    Maximum-Head-Change  Column Row Layer    Maximum-Flux-Residual          L2-NORM 
          0                 1           2             2    1     1       0.1955709688E-02       2    1    1         0.1015972004E+00      0.1723988525E+00
          0                 2           2             2    1     1      -0.1902374005E-03       2    1    1        -0.1015973180E-01      0.1723989653E-01
          0                 3           1             2    1     1       0.1295445969E-04       2    1    1         0.7111814217E-03      0.1206793938E-02

    ------------------------------------------------
       NWT REQUIRED            3 OUTER ITERATIONS 
       AND A TOTAL OF          5 INNER ITERATIONS.
    ------------------------------------------------

 NO OUTPUT CONTROL FOR STRESS PERIOD   35   TIME STEP    7
 
 SOLVING FOR HEAD 
                                                   Max.-Head-Change                         Max.-Flux-Residual
  Residual-Control   Outer-Iter.   Inner-Iter.     Column Row Layer    Maximum-Head-Change  Column Row Layer    Maximum-Flux-Residual          L2-NORM 
          0                 1           2             2    1     1       0.1952278948E-02       2    1    1         0.1014180333E+00      0.1710653319E+00
          0                 2           2             2    1     1      -0.1899036818E-03       2    1    1        -0.1014181500E-01      0.1710654415E-01
          0                 3           1             2    1     1       0.1293173455E-04       2    1    1         0.7099272448E-03      0.1197461815E-02

    ------------------------------------------------
       NWT REQUIRED            3 OUTER ITERATIONS 
       AND A TOTAL OF          5 INNER ITERATIONS.
    ------------------------------------------------

 NO OUTPUT CONTROL FOR STRESS PERIOD   35   TIME STEP    8
 
 SOLVING FOR HEAD 
                                                   Max.-Head-Change                         Max.-Flux-Residual
  Residual-Control   Outer-Iter.   Inner-Iter.     Column Row Layer    Maximum-Head-Change  Column Row Layer    Maximum-Flux-Residual          L2-NORM 
          0                 1           2             2    1     1       0.1948894605E-02       2    1    1         0.1012412906E+00      0.1697834368E+00
          0                 2           2             2    1     1      -0.1895744761E-03       2    1    1        -0.1012414064E-01      0.1697835452E-01
          0                 3           1             2    1     1       0.1290931686E-04       2    1    1         0.7086900465E-03      0.1188485871E-02

    ------------------------------------------------
       NWT REQUIRED            3 OUTER ITERATIONS 
       AND A TOTAL OF          5 INNER ITERATIONS.
    ------------------------------------------------

 NO OUTPUT CONTROL FOR STRESS PERIOD   35   TIME STEP    9
 
 SOLVING FOR HEAD 
                                                   Max.-Head-Change                         Max.-Flux-Residual
  Residual-Control   Outer-Iter.   Inner-Iter.     Column Row Layer    Maximum-Head-Change  Column Row Layer    Maximum-Flux-Residual          L2-NORM 
          0                 1           2             2    1     1       0.1945512635E-02       2    1    1         0.1010646786E+00      0.1685598784E+00
          0                 2           2             2    1     1      -0.1892455010E-03       2    1    1        -0.1010647933E-01      0.1685600523E-01
          0                 3           1             2    1     1       0.1288691526E-04       2    1    1         0.7074537634E-03      0.1179920568E-02

    ------------------------------------------------
       NWT REQUIRED            3 OUTER ITERATIONS 
       AND A TOTAL OF          5 INNER ITERATIONS.
    ------------------------------------------------

 NO OUTPUT CONTROL FOR STRESS PERIOD   35   TIME STEP   10
 
 SOLVING FOR HEAD 
                                                   Max.-Head-Change                         Max.-Flux-Residual
  Residual-Control   Outer-Iter.   Inner-Iter.     Column Row Layer    Maximum-Head-Change  Column Row Layer    Maximum-Flux-Residual          L2-NORM 
          0                 1           2             2    1     1       0.1942176435E-02       2    1    1         0.1008904648E+00      0.1673812684E+00
          0                 2           2             2    1     1      -0.1889209784E-03       2    1    1        -0.1008905786E-01      0.1673813728E-01
          0                 3           1             2    1     1       0.1286481661E-04       2    1    1         0.7062342580E-03      0.1171672188E-02

    ------------------------------------------------
       NWT REQUIRED            3 OUTER ITERATIONS 
       AND A TOTAL OF          5 INNER ITERATIONS.
    ------------------------------------------------

 NO OUTPUT CONTROL FOR STRESS PERIOD   35   TIME STEP   11
 
 SOLVING FOR HEAD 
                                                   Max.-Head-Change                         Max.-Flux-Residual
  Residual-Control   Outer-Iter.   Inner-Iter.     Column Row Layer    Maximum-Head-Change  Column Row Layer    Maximum-Flux-Residual          L2-NORM 
          0                 1           2             2    1     1       0.1938841912E-02       2    1    1         0.1007163488E+00      0.1662493850E+00
          0                 2           2             2    1     1      -0.1885966188E-03       2    1    1        -0.1007164619E-01      0.1662494920E-01
          0                 3           1             2    1     1       0.1284272836E-04       2    1    1         0.7050154114E-03      0.1163750494E-02

    ------------------------------------------------
       NWT REQUIRED            3 OUTER ITERATIONS 
       AND A TOTAL OF          5 INNER ITERATIONS.
    ------------------------------------------------

 NO OUTPUT CONTROL FOR STRESS PERIOD   35   TIME STEP   12
 
 SOLVING FOR HEAD 
                                                   Max.-Head-Change                         Max.-Flux-Residual
  Residual-Control   Outer-Iter.   Inner-Iter.     Column Row Layer    Maximum-Head-Change  Column Row Layer    Maximum-Flux-Residual          L2-NORM 
          0                 1           2             2    1     1       0.1935552709E-02       2    1    1         0.1005445952E+00      0.1651572265E+00
          0                 2           2             2    1     1      -0.1882766678E-03       2    1    1        -0.1005447073E-01      0.1651573310E-01
          0                 3           1             2    1     1       0.1282094117E-04       2    1    1         0.7038131473E-03      0.1156101697E-02

    ------------------------------------------------
       NWT REQUIRED            3 OUTER ITERATIONS 
       AND A TOTAL OF          5 INNER ITERATIONS.
    ------------------------------------------------

 NO OUTPUT CONTROL FOR STRESS PERIOD   35   TIME STEP   13
 
 SOLVING FOR HEAD 
                                                   Max.-Head-Change                         Max.-Flux-Residual
  Residual-Control   Outer-Iter.   Inner-Iter.     Column Row Layer    Maximum-Head-Change  Column Row Layer    Maximum-Flux-Residual          L2-NORM 
          0                 1           2             2    1     1       0.1932264608E-02       2    1    1         0.1003729158E+00      0.1641083957E+00
          0                 2           2             2    1     1      -0.1879568239E-03       2    1    1        -0.1003730271E-01      0.1641084984E-01
          0                 3           1             2    1     1       0.1279916107E-04       2    1    1         0.7026113885E-03      0.1148761767E-02

    ------------------------------------------------
       NWT REQUIRED            3 OUTER ITERATIONS 
       AND A TOTAL OF          5 INNER ITERATIONS.
    ------------------------------------------------

 NO OUTPUT CONTROL FOR STRESS PERIOD   35   TIME STEP   14
 
 SOLVING FOR HEAD 
                                                   Max.-Head-Change                         Max.-Flux-Residual
  Residual-Control   Outer-Iter.   Inner-Iter.     Column Row Layer    Maximum-Head-Change  Column Row Layer    Maximum-Flux-Residual          L2-NORM 
          0                 1           2             2    1     1       0.1928999372E-02       2    1    1         0.1002024313E+00      0.1631001736E+00
          0                 2           2             2    1     1      -0.1876392047E-03       2    1    1        -0.1002025420E-01      0.1631002750E-01
          0                 3           1             2    1     1       0.1277753269E-04       2    1    1         0.7014179911E-03      0.1141702354E-02

    ------------------------------------------------
       NWT REQUIRED            3 OUTER ITERATIONS 
       AND A TOTAL OF          5 INNER ITERATIONS.
    ------------------------------------------------

 NO OUTPUT CONTROL FOR STRESS PERIOD   35   TIME STEP   15
 
 SOLVING FOR HEAD 
                                                   Max.-Head-Change                         Max.-Flux-Residual
  Residual-Control   Outer-Iter.   Inner-Iter.     Column Row Layer    Maximum-Head-Change  Column Row Layer    Maximum-Flux-Residual          L2-NORM 
          0                 1           2             2    1     1       0.1925778617E-02       2    1    1         0.1000342704E+00      0.1621251126E+00
          0                 2           2             2    1     1      -0.1873259113E-03       2    1    1        -0.1000343800E-01      0.1621252150E-01
          0                 3           1             2    1     1       0.1275619849E-04       2    1    1         0.7002408555E-03      0.1134876997E-02

    ------------------------------------------------
       NWT REQUIRED            3 OUTER ITERATIONS 
       AND A TOTAL OF          5 INNER ITERATIONS.
    ------------------------------------------------

 NO OUTPUT CONTROL FOR STRESS PERIOD   35   TIME STEP   16
 
 SOLVING FOR HEAD 
                                                   Max.-Head-Change                         Max.-Flux-Residual
  Residual-Control   Outer-Iter.   Inner-Iter.     Column Row Layer    Maximum-Head-Change  Column Row Layer    Maximum-Flux-Residual          L2-NORM 
          0                 1           2             2    1     1       0.1922558202E-02       2    1    1         0.9986613983E-01      0.1611873723E+00
          0                 2           2             2    1     1      -0.1870126516E-03       2    1    1        -0.9986624864E-02      0.1611874676E-01
          0                 3           1             2    1     1       0.1273486689E-04       2    1    1         0.6990639432E-03      0.1128312465E-02

    ------------------------------------------------
       NWT REQUIRED            3 OUTER ITERATIONS 
       AND A TOTAL OF          5 INNER ITERATIONS.
    ------------------------------------------------

 NO OUTPUT CONTROL FOR STRESS PERIOD   35   TIME STEP   17
 
 SOLVING FOR HEAD 
                                                   Max.-Head-Change                         Max.-Flux-Residual
  Residual-Control   Outer-Iter.   Inner-Iter.     Column Row Layer    Maximum-Head-Change  Column Row Layer    Maximum-Flux-Residual          L2-NORM 
          0                 1           2             2    1     1       0.1919359834E-02       2    1    1         0.9969916480E-01      0.1602792787E+00
          0                 2           2             2    1     1      -0.1867015367E-03       2    1    1        -0.9969927288E-02      0.1602793677E-01
          0                 3           1             2    1     1       0.1271368132E-04       2    1    1         0.6978951210E-03      0.1121955896E-02

    ------------------------------------------------
       NWT REQUIRED            3 OUTER ITERATIONS 
       AND A TOTAL OF          5 INNER ITERATIONS.
    ------------------------------------------------

 NO OUTPUT CONTROL FOR STRESS PERIOD   35   TIME STEP   18
 
 SOLVING FOR HEAD 
                                                   Max.-Head-Change                         Max.-Flux-Residual
  Residual-Control   Outer-Iter.   Inner-Iter.     Column Row Layer    Maximum-Head-Change  Column Row Layer    Maximum-Flux-Residual          L2-NORM 
          0                 1           2             2    1     1       0.1916205145E-02       2    1    1         0.9953447102E-01      0.1594091459E+00
          0                 2           2             2    1     1      -0.1863946701E-03       2    1    1        -0.9953457829E-02      0.1594092384E-01
          0                 3           1             2    1     1       0.1269278472E-04       2    1    1         0.6967422578E-03      0.1115865059E-02

    ------------------------------------------------
       NWT REQUIRED            3 OUTER ITERATIONS 
       AND A TOTAL OF          5 INNER ITERATIONS.
    ------------------------------------------------

 NO OUTPUT CONTROL FOR STRESS PERIOD   35   TIME STEP   19
 
 SOLVING FOR HEAD 
                                                   Max.-Head-Change                         Max.-Flux-Residual
  Residual-Control   Outer-Iter.   Inner-Iter.     Column Row Layer    Maximum-Head-Change  Column Row Layer    Maximum-Flux-Residual          L2-NORM 
          0                 1           2             2    1     1       0.1913050028E-02       2    1    1         0.9936976573E-01      0.1585625863E+00
          0                 2           2             2    1     1      -0.1860877619E-03       2    1    1        -0.9936987215E-02      0.1585626881E-01
          0                 3           1             2    1     1       0.1267188553E-04       2    1    1         0.6955893072E-03      0.1109939364E-02

    ------------------------------------------------
       NWT REQUIRED            3 OUTER ITERATIONS 
       AND A TOTAL OF          5 INNER ITERATIONS.
    ------------------------------------------------

 NO OUTPUT CONTROL FOR STRESS PERIOD   35   TIME STEP   20
 
 SOLVING FOR HEAD 
                                                   Max.-Head-Change                         Max.-Flux-Residual
  Residual-Control   Outer-Iter.   Inner-Iter.     Column Row Layer    Maximum-Head-Change  Column Row Layer    Maximum-Flux-Residual          L2-NORM 
          0                 1           2             2    1     1       0.1909916177E-02       2    1    1         0.9920617636E-01      0.1577472467E+00
          0                 2           2             2    1     1      -0.1857829224E-03       2    1    1        -0.9920628207E-02      0.1577473493E-01
          0                 3           1             2    1     1       0.1265112715E-04       2    1    1         0.6944441720E-03      0.1104231968E-02

    ------------------------------------------------
       NWT REQUIRED            3 OUTER ITERATIONS 
       AND A TOTAL OF          5 INNER ITERATIONS.
    ------------------------------------------------

 NO OUTPUT CONTROL FOR STRESS PERIOD   35   TIME STEP   21
 
 SOLVING FOR HEAD 
                                                   Max.-Head-Change                         Max.-Flux-Residual
  Residual-Control   Outer-Iter.   Inner-Iter.     Column Row Layer    Maximum-Head-Change  Column Row Layer    Maximum-Flux-Residual          L2-NORM 
          0                 1           2             2    1     1       0.1906825238E-02       2    1    1         0.9904482789E-01      0.1569623998E+00
          0                 2           2             2    1     1      -0.1854822573E-03       2    1    1        -0.9904493295E-02      0.1569624872E-01
          0                 3           1             2    1     1       0.1263065278E-04       2    1    1         0.6933147256E-03      0.1098737608E-02

    ------------------------------------------------
       NWT REQUIRED            3 OUTER ITERATIONS 
       AND A TOTAL OF          5 INNER ITERATIONS.
    ------------------------------------------------

 NO OUTPUT CONTROL FOR STRESS PERIOD   35   TIME STEP   22
 
 SOLVING FOR HEAD 
                                                   Max.-Head-Change                         Max.-Flux-Residual
  Residual-Control   Outer-Iter.   Inner-Iter.     Column Row Layer    Maximum-Head-Change  Column Row Layer    Maximum-Flux-Residual          L2-NORM 
          0                 1           2             2    1     1       0.1903733209E-02       2    1    1         0.9888342779E-01      0.1562010424E+00
          0                 2           2             2    1     1      -0.1851814856E-03       2    1    1        -0.9888353186E-02      0.1562011356E-01
          0                 3           1             2    1     1       0.1261017155E-04       2    1    1         0.6921849163E-03      0.1093409749E-02

    ------------------------------------------------
       NWT REQUIRED            3 OUTER ITERATIONS 
       AND A TOTAL OF          5 INNER ITERATIONS.
    ------------------------------------------------

 NO OUTPUT CONTROL FOR STRESS PERIOD   35   TIME STEP   23
 
 SOLVING FOR HEAD 
                                                   Max.-Head-Change                         Max.-Flux-Residual
  Residual-Control   Outer-Iter.   Inner-Iter.     Column Row Layer    Maximum-Head-Change  Column Row Layer    Maximum-Flux-Residual          L2-NORM 
          0                 1           2             2    1     1       0.1900661698E-02       2    1    1         0.9872310949E-01      0.1554634866E+00
          0                 2           2             2    1     1      -0.1848827108E-03       2    1    1        -0.9872321301E-02      0.1554635809E-01
          0                 3           1             2    1     1       0.1258982617E-04       2    1    1         0.6910626908E-03      0.1088245468E-02

    ------------------------------------------------
       NWT REQUIRED            3 OUTER ITERATIONS 
       AND A TOTAL OF          5 INNER ITERATIONS.
    ------------------------------------------------

 NO OUTPUT CONTROL FOR STRESS PERIOD   35   TIME STEP   24
 
 SOLVING FOR HEAD 
                                                   Max.-Head-Change                         Max.-Flux-Residual
  Residual-Control   Outer-Iter.   Inner-Iter.     Column Row Layer    Maximum-Head-Change  Column Row Layer    Maximum-Flux-Residual          L2-NORM 
          0                 1           2             2    1     1       0.1897610563E-02       2    1    1         0.9856385500E-01      0.1547532375E+00
          0                 2           2             2    1     1      -0.1845859172E-03       2    1    1        -0.9856395760E-02      0.1547533204E-01
          0                 3           1             2    1     1       0.1256961593E-04       2    1    1         0.6899479079E-03      0.1083274006E-02

    ------------------------------------------------
       NWT REQUIRED            3 OUTER ITERATIONS 
       AND A TOTAL OF          5 INNER ITERATIONS.
    ------------------------------------------------

 NO OUTPUT CONTROL FOR STRESS PERIOD   35   TIME STEP   25
 
 SOLVING FOR HEAD 
                                                   Max.-Head-Change                         Max.-Flux-Residual
  Residual-Control   Outer-Iter.   Inner-Iter.     Column Row Layer    Maximum-Head-Change  Column Row Layer    Maximum-Flux-Residual          L2-NORM 
          0                 1           2             2    1     1       0.1894579465E-02       2    1    1         0.9840565703E-01      0.1540623381E+00
          0                 2           2             2    1     1      -0.1842910725E-03       2    1    1        -0.9840575884E-02      0.1540624239E-01
          0                 3           1             2    1     1       0.1254953775E-04       2    1    1         0.6888405090E-03      0.1078438125E-02

    ------------------------------------------------
       NWT REQUIRED            3 OUTER ITERATIONS 
       AND A TOTAL OF          5 INNER ITERATIONS.
    ------------------------------------------------

 NO OUTPUT CONTROL FOR STRESS PERIOD   35   TIME STEP   26
 
 SOLVING FOR HEAD 
                                                   Max.-Head-Change                         Max.-Flux-Residual
  Residual-Control   Outer-Iter.   Inner-Iter.     Column Row Layer    Maximum-Head-Change  Column Row Layer    Maximum-Flux-Residual          L2-NORM 
          0                 1           2             2    1     1       0.1891568270E-02       2    1    1         0.9824849791E-01      0.1533960425E+00
          0                 2           2             2    1     1      -0.1839981647E-03       2    1    1        -0.9824859912E-02      0.1533961734E-01
          0                 3           1             2    1     1       0.1252959211E-04       2    1    1         0.6877403966E-03      0.1073821982E-02

    ------------------------------------------------
       NWT REQUIRED            3 OUTER ITERATIONS 
       AND A TOTAL OF          5 INNER ITERATIONS.
    ------------------------------------------------

 NO OUTPUT CONTROL FOR STRESS PERIOD   35   TIME STEP   27
 
 SOLVING FOR HEAD 
                                                   Max.-Head-Change                         Max.-Flux-Residual
  Residual-Control   Outer-Iter.   Inner-Iter.     Column Row Layer    Maximum-Head-Change  Column Row Layer    Maximum-Flux-Residual          L2-NORM 
          0                 1           2             2    1     1       0.1888576714E-02       2    1    1         0.9809237073E-01      0.1527485509E+00
          0                 2           2             2    1     1      -0.1837071667E-03       2    1    1        -0.9809247114E-02      0.1527486326E-01
          0                 3           1             2    1     1       0.1250977641E-04       2    1    1         0.6866475088E-03      0.1069240534E-02

    ------------------------------------------------
       NWT REQUIRED            3 OUTER ITERATIONS 
       AND A TOTAL OF          5 INNER ITERATIONS.
    ------------------------------------------------

 NO OUTPUT CONTROL FOR STRESS PERIOD   35   TIME STEP   28
 
 SOLVING FOR HEAD 
                                                   Max.-Head-Change                         Max.-Flux-Residual
  Residual-Control   Outer-Iter.   Inner-Iter.     Column Row Layer    Maximum-Head-Change  Column Row Layer    Maximum-Flux-Residual          L2-NORM 
          0                 1           2             2    1     1       0.1885604501E-02       2    1    1         0.9793726189E-01      0.1521222898E+00
          0                 2           2             2    1     1      -0.1834180505E-03       2    1    1        -0.9793736176E-02      0.1521223742E-01
          0                 3           1             2    1     1       0.1249008827E-04       2    1    1         0.6855617322E-03      0.1064856857E-02

    ------------------------------------------------
       NWT REQUIRED            3 OUTER ITERATIONS 
       AND A TOTAL OF          5 INNER ITERATIONS.
    ------------------------------------------------

 NO OUTPUT CONTROL FOR STRESS PERIOD   35   TIME STEP   29
 
 SOLVING FOR HEAD 
                                                   Max.-Head-Change                         Max.-Flux-Residual
  Residual-Control   Outer-Iter.   Inner-Iter.     Column Row Layer    Maximum-Head-Change  Column Row Layer    Maximum-Flux-Residual          L2-NORM 
          0                 1           2             2    1     1       0.1882673413E-02       2    1    1         0.9778429465E-01      0.1515172471E+00
          0                 2           2             2    1     1      -0.1831329343E-03       2    1    1        -0.9778439375E-02      0.1515173240E-01
          0                 3           1             2    1     1       0.1247067325E-04       2    1    1         0.6844909538E-03      0.1060622101E-02

    ------------------------------------------------
       NWT REQUIRED            3 OUTER ITERATIONS 
       AND A TOTAL OF          5 INNER ITERATIONS.
    ------------------------------------------------

 NO OUTPUT CONTROL FOR STRESS PERIOD   35   TIME STEP   30



 STREAM LISTING     PERIOD     35   STEP       30

 LAYER ROW COL. STREAM  RCH.  FLOW INTO     FLOW TO   FLOW OUT OF   OVRLND.     DIRECT     STREAM       STREAM     STREAM     STREAM   STREAMBED  STREAMBED
                SEG.NO.  NO.  STRM. RCH.    AQUIFER    STRM. RCH.    RUNOFF     PRECIP       ET          HEAD       DEPTH      WIDTH   CONDCTNC.   GRADIENT

   1    1    1     1     1    2.6249E+01  2.5084E-01   2.5998E+01  0.000E+00  0.000E+00  0.000E+00  1.09424E+03  1.197E+00  1.328E+01  5.977E-02  1.399E+00
   1    2    2     1     2    2.5998E+01  3.8795E-01   2.5610E+01  0.000E+00  0.000E+00  0.000E+00  1.08925E+03  1.192E+00  1.322E+01  9.254E-02  1.397E+00
   1    3    3     1     3    2.5610E+01  3.3035E-01   2.5280E+01  0.000E+00  0.000E+00  0.000E+00  1.08361E+03  1.187E+00  1.315E+01  7.890E-02  1.396E+00
   1    3    4     1     4    2.5280E+01  3.0378E-01   2.4976E+01  0.000E+00  0.000E+00  0.000E+00  1.07859E+03  1.182E+00  1.309E+01  7.264E-02  1.394E+00
   1    4    5     2     1    2.2976E+01  3.2316E-01   2.2653E+01  0.000E+00  0.000E+00  0.000E+00  1.07308E+03  1.143E+00  1.200E+01  7.800E-02  1.381E+00
   1    5    6     2     2    2.2653E+01  2.4807E-01   2.2405E+01  0.000E+00  0.000E+00  0.000E+00  1.06764E+03  1.134E+00  1.200E+01  6.000E-02  1.378E+00
   1    6    6     2     3    2.2405E+01  2.4762E-01   2.2157E+01  0.000E+00  0.000E+00  0.000E+00  1.06292E+03  1.127E+00  1.200E+01  6.000E-02  1.376E+00
   1    7    6     2     4    2.2157E+01  2.4717E-01   2.1910E+01  0.000E+00  0.000E+00  0.000E+00  1.05819E+03  1.119E+00  1.200E+01  6.000E-02  1.373E+00
   1    8    6     2     5    2.1910E+01  2.4671E-01   2.1664E+01  0.000E+00  0.000E+00  0.000E+00  1.05347E+03  1.112E+00  1.200E+01  6.000E-02  1.371E+00
   1    3    5     3     1    2.0000E+00  2.8252E-01   1.7175E+00  0.000E+00  0.000E+00  0.000E+00  1.07555E+03  1.909E+00  9.636E+00  7.227E-02  1.955E+00
   1    3    6     3     2    1.7175E+00  2.4905E-01   1.4684E+00  0.000E+00  0.000E+00  0.000E+00  1.07264E+03  1.727E+00  8.909E+00  6.682E-02  1.864E+00
   1    3    7     3     3    1.4684E+00  1.9718E-01   1.2712E+00  0.000E+00  0.000E+00  0.000E+00  1.06987E+03  1.555E+00  8.218E+00  5.547E-02  1.777E+00
   1    4    8     3     4    1.2712E+00  2.2567E-01   1.0456E+00  0.000E+00  0.000E+00  0.000E+00  1.06682E+03  1.364E+00  7.455E+00  6.709E-02  1.682E+00
   1    5    8     3     5    1.0456E+00  1.5790E-01   8.8768E-01  0.000E+00  0.000E+00  0.000E+00  1.06362E+03  1.164E+00  6.655E+00  4.991E-02  1.582E+00
   1    6    8     3     6    8.8768E-01  5.5980E-02   8.3170E-01  0.000E+00  0.000E+00  0.000E+00  1.06158E+03  1.036E+00  6.145E+00  1.844E-02  1.518E+00
   1    5   10     4     1    1.0000E+01  9.0919E-02   9.9091E+00  0.000E+00  0.000E+00  0.000E+00  1.07836E+03  6.368E-01  1.000E+01  2.500E-02  1.212E+00
   1    5    9     4     2    9.9091E+00  1.8158E-01   9.7275E+00  0.000E+00  0.000E+00  0.000E+00  1.07154E+03  6.315E-01  1.000E+01  5.000E-02  1.211E+00
   1    6    8     4     3    9.7275E+00  1.2689E-01   9.6006E+00  0.000E+00  0.000E+00  0.000E+00  1.06381E+03  6.256E-01  1.000E+01  3.500E-02  1.209E+00
   1    6    8     5     1    1.0432E+01  2.2686E-01   1.0205E+01  0.000E+00  0.000E+00  0.000E+00  1.05868E+03  6.790E-01  1.542E+01  6.166E-02  1.226E+00
   1    7    7     5     2    1.0205E+01  2.7894E-01   9.9265E+00  0.000E+00  0.000E+00  0.000E+00  1.05417E+03  6.732E-01  1.519E+01  7.594E-02  1.224E+00
   1    8    7     5     3    9.9265E+00  1.9221E-01   9.7343E+00  0.000E+00  0.000E+00  0.000E+00  1.04992E+03  6.676E-01  1.497E+01  5.241E-02  1.223E+00
   1    8    6     5     4    9.7343E+00  1.3577E-01   9.5985E+00  0.000E+00  0.000E+00  0.000E+00  1.04691E+03  6.637E-01  1.482E+01  3.706E-02  1.221E+00
   1    9    6     6     1    9.5985E+00  2.2097E-01   9.3776E+00  0.000E+00  0.000E+00  0.000E+00  1.04341E+03  6.828E-01  1.200E+01  6.000E-02  1.228E+00
   1   10    7     6     2    9.3776E+00  2.2039E-01   9.1572E+00  0.000E+00  0.000E+00  0.000E+00  1.03885E+03  6.732E-01  1.200E+01  6.000E-02  1.224E+00
   1   11    7     6     3    9.1572E+00  2.1981E-01   8.9374E+00  0.000E+00  0.000E+00  0.000E+00  1.03430E+03  6.636E-01  1.200E+01  6.000E-02  1.221E+00
   1   12    7     6     4    8.9374E+00  2.1923E-01   8.7181E+00  0.000E+00  0.000E+00  0.000E+00  1.02974E+03  6.539E-01  1.200E+01  6.000E-02  1.218E+00
   1   13    7     6     5    8.7181E+00 -1.1030E-01   8.8284E+00  0.000E+00  0.000E+00  0.000E+00  1.02656E+03  6.514E-01  1.200E+01  2.400E-01 -1.532E-01
   1   14    9     7     1    1.5000E+02  1.3451E+00   1.4865E+02  0.000E+00  0.000E+00  0.000E+00  1.03987E+03  2.288E+00  5.529E+01  5.593E-01  8.016E-01
   1   13    8     7     2    1.4865E+02  1.8503E+00   1.4680E+02  0.000E+00  0.000E+00  0.000E+00  1.03478E+03  2.279E+00  5.526E+01  6.148E-01  1.003E+00
   1   13    7     7     3    1.4680E+02  1.4908E+00   1.4531E+02  0.000E+00  0.000E+00  0.000E+00  1.02969E+03  2.270E+00  5.522E+01  5.584E-01  8.898E-01
   1   13    6     8     1    1.5414E+02  8.4287E-01   1.5330E+02  0.000E+00  0.000E+00  0.000E+00  1.02472E+03  2.843E+00  4.122E+01  4.201E-01  6.689E-01
   1   13    5     8     2    1.5330E+02  1.1255E-01   1.5319E+02  0.000E+00  0.000E+00  0.000E+00  1.01846E+03  2.840E+00  4.117E+01  4.196E-01  8.942E-02
   1   13    4     8     3    1.5319E+02 -2.6387E+00   1.5583E+02  0.000E+00  0.000E+00  0.000E+00  1.01222E+03  2.848E+00  4.130E+01  4.209E+00 -2.090E-01
   1   13    3     8     4    1.5583E+02 -3.7265E+00   1.5955E+02  0.000E+00  0.000E+00  0.000E+00  1.00600E+03  2.870E+00  4.162E+01  4.241E+00 -2.929E-01
   1   13    2     8     5    1.5955E+02 -2.5927E+00   1.6214E+02  0.000E+00  0.000E+00  0.000E+00  9.99767E+02  2.892E+00  4.193E+01  4.273E+00 -2.023E-01
   1   13    1     8     6    1.6214E+02 -1.9792E+00   1.6412E+02  0.000E+00  0.000E+00  0.000E+00  9.94782E+02  2.907E+00  4.215E+01  2.577E+00 -2.560E-01
   1    8    6     9     1    2.1664E+01  0.0000E+00   2.1664E+01  0.000E+00  0.000E+00  0.000E+00  1.08235E+03  3.603E+00  4.000E+00  0.000E+00  2.201E+00
   1    8    5     9     2    2.1664E+01  0.0000E+00   2.1664E+01  0.000E+00  0.000E+00  0.000E+00  1.08185E+03  3.603E+00  4.000E+00  0.000E+00  2.201E+00





UNSATURATED ZONE PACKAGE VOLUMETRIC BUDGET FOR  TIME STEP    30 STRESS PERIOD   35
  ------------------------------------------------------------------------------



     CUMULATIVE VOLUMES      L**3       RATES FOR THIS TIME STEP      L**3/T
     ------------------                 ------------------------

           IN:                                      IN:
           ---                                      ---
        INFILTRATION =    75856669.6732          INFILTRATION =           0.8475

          OUT:                                     OUT:
          ----                                     ----
              UZF ET =    75050300.6266                UZF ET =           0.8475
        UZF RECHARGE =       73224.0000          UZF RECHARGE =       0.0000E+00

            IN - OUT =      733145.0466              IN - OUT =       0.0000E+00

          STORAGE:                                 STORAGE:
          --------                                 --------
      STORAGE CHANGE =      733145.3167        STORAGE CHANGE =      -3.3198E-16

 PERCENT DISCREPANCY IS DIFFERENCE BETWEEN IN-OUT MINUS CHANGE IN STORAGE
 DIVIDED BY THE AVERAGE OF IN AND OUT TIMES 100

 PERCENT DISCREPANCY =           0.00     PERCENT DISCREPANCY =           0.00






1
  VOLUMETRIC BUDGET FOR ENTIRE MODEL AT END OF TIME STEP   30, STRESS PERIOD  35
  ------------------------------------------------------------------------------

     CUMULATIVE VOLUMES      L**3       RATES FOR THIS TIME STEP      L**3/T
     ------------------                 ------------------------

           IN:                                      IN:
           ---                                      ---
             STORAGE     =    28093560.0000               STORAGE     =           0.1362
       CONSTANT HEAD     =           0.0000         CONSTANT HEAD     =           0.0000
     HEAD DEP BOUNDS     =    25610210.0000       HEAD DEP BOUNDS     =           0.2864
      STREAM LEAKAGE     =  1051907264.0000        STREAM LEAKAGE     =          11.5090
        UZF RECHARGE     =       73223.9531          UZF RECHARGE     =           0.0000
               GW ET     =           0.0000                 GW ET     =           0.0000
     SURFACE LEAKAGE     =           0.0000       SURFACE LEAKAGE     =           0.0000

                TOTAL IN =  1105684224.0000                  TOTAL IN =          11.9317

          OUT:                                     OUT:
          ----                                     ----
             STORAGE     =    88915792.0000               STORAGE     =           0.5974
       CONSTANT HEAD     =           0.0000         CONSTANT HEAD     =           0.0000
     HEAD DEP BOUNDS     =    25681276.0000       HEAD DEP BOUNDS     =           0.2869
      STREAM LEAKAGE     =   991103424.0000        STREAM LEAKAGE     =          11.0475
        UZF RECHARGE     =           0.0000          UZF RECHARGE     =           0.0000
               GW ET     =           0.0000                 GW ET     =           0.0000
     SURFACE LEAKAGE     =           0.0000       SURFACE LEAKAGE     =           0.0000

               TOTAL OUT =  1105700480.0000                 TOTAL OUT =          11.9318

                IN - OUT =      -16256.0000                  IN - OUT =      -1.2779E-04

     PERCENT DISCREPANCY =          -0.00         PERCENT DISCREPANCY =          -0.00






         TIME SUMMARY AT END OF TIME STEP   30 IN STRESS PERIOD   35
                    SECONDS     MINUTES      HOURS       DAYS        YEARS
                    -----------------------------------------------------------
   TIME STEP LENGTH  87667.      1461.1      24.352      1.0147     2.77799E-03
 STRESS PERIOD TIME 2.63000E+06  43833.      730.56      30.440     8.33397E-02
         TOTAL TIME 8.95061E+07 1.49177E+06  24863.      1036.0      2.8363    
1
1
                            STRESS PERIOD NO.   36, LENGTH =   2630000.    
                            -----------------------------------------------

                              NUMBER OF TIME STEPS =    30

                               MULTIPLIER FOR DELT =     1.000

                            INITIAL TIME STEP SIZE =   87666.66    

 REUSING NON-PARAMETER GHB CELLS FROM LAST STRESS PERIOD

      2 GHB CELLS

 REUSING STREAM SEGMENT DATA FROM LAST STRESS PERIOD



            AREAL INFILTRATION RATE
 READING ON UNIT   19 WITH FORMAT: (FREE)              

            1           2           3           4           5           6           7           8           9          10
 ........................................................................................................................
   1   1.0000E-10  2.0000E-10   0.000       0.000       0.000       0.000       0.000       0.000       0.000       0.000    
   2   2.0000E-10  1.0000E-10  2.0000E-10   0.000       0.000      8.0000E-10  8.0000E-10  5.0000E-10   0.000       0.000    
   3    0.000      5.0000E-10  1.0000E-10  1.0000E-10  8.0000E-10  8.0000E-10  5.0000E-10  5.0000E-10   0.000       0.000    
   4   8.0000E-10  5.0000E-10  1.0000E-10  1.0000E-10  1.0000E-10  1.0000E-10  1.0000E-10  1.0000E-10  2.0000E-10   0.000    
   5   8.0000E-10  5.0000E-10  1.0000E-10  1.0000E-10  1.0000E-10  1.0000E-10  1.0000E-10  1.0000E-10  1.0000E-10  1.0000E-10
   6   8.0000E-10  5.0000E-10  5.0000E-10  2.0000E-10  2.0000E-10  1.0000E-10  1.0000E-10  1.0000E-10  1.0000E-10  5.0000E-10
   7   8.0000E-10  5.0000E-10  5.0000E-10  2.0000E-10  2.0000E-10  1.0000E-10  1.0000E-10  2.0000E-10  2.0000E-10   0.000    
   8    0.000      5.0000E-10  5.0000E-10  2.0000E-10  2.0000E-10  1.0000E-10  1.0000E-10  2.0000E-10  5.0000E-10   0.000    
   9    0.000      5.0000E-10  5.0000E-10  2.0000E-10  2.0000E-10  1.0000E-10  1.0000E-10  2.0000E-10  5.0000E-10   0.000    
  10    0.000      5.0000E-10  5.0000E-10  2.0000E-10  2.0000E-10  1.0000E-10  1.0000E-10  2.0000E-10  5.0000E-10  8.0000E-10
  11    0.000      1.0000E-10  1.0000E-10  1.0000E-10  1.0000E-10  1.0000E-10  1.0000E-10  2.0000E-10  5.0000E-10   0.000    
  12   1.0000E-10  1.0000E-10  1.0000E-10  1.0000E-10  1.0000E-10  1.0000E-10  1.0000E-10  1.0000E-10  2.0000E-10   0.000    
  13   1.0000E-10  1.0000E-10  2.0000E-10  2.0000E-10  2.0000E-10  2.0000E-10  2.0000E-10  1.0000E-10  1.0000E-10   0.000    
  14    0.000      2.0000E-10  5.0000E-10  5.0000E-10  5.0000E-10  5.0000E-10  5.0000E-10  2.0000E-10  1.0000E-10   0.000    
  15    0.000       0.000      8.0000E-10  8.0000E-10  8.0000E-10  8.0000E-10   0.000       0.000       0.000       0.000    

                  ET RATE =  5.000000E-10

 USING ET EXTINCTION DEPTH FROM PREVIOUS STRESS PERIOD. CURRENT PERIOD IS:      36

 USING EXTINCTION WATER CONTENT FROM PREVIOUS STRESS PERIOD. CURRENT PERIOD IS:      36

 USING AIR ENTRY PRESSURE FROM PREVIOUS STRESS PERIOD. CURRENT PERIOD IS:      36

 USING ROOT PRESSURE HEAD FROM PREVIOUS STRESS PERIOD. CURRENT PERIOD IS:      36

 USING ROOT ACTIVITY FROM PREVIOUS STRESS PERIOD. CURRENT PERIOD IS:      36
 
 SOLVING FOR HEAD 
                                                   Max.-Head-Change                         Max.-Flux-Residual
  Residual-Control   Outer-Iter.   Inner-Iter.     Column Row Layer    Maximum-Head-Change  Column Row Layer    Maximum-Flux-Residual          L2-NORM 
          0                 1           2             2    1     1       0.1879739358E-02       2    1    1         0.9763118221E-01      0.1509291291E+00
          0                 2           2             2    1     1      -0.1828475300E-03       2    1    1        -0.9763128071E-02      0.1509292178E-01
          0                 3           1             2    1     1       0.1245123835E-04       2    1    1         0.6834191631E-03      0.1056507149E-02

    ------------------------------------------------
       NWT REQUIRED            3 OUTER ITERATIONS 
       AND A TOTAL OF          5 INNER ITERATIONS.
    ------------------------------------------------

 NO OUTPUT CONTROL FOR STRESS PERIOD   36   TIME STEP    1
 
 SOLVING FOR HEAD 
                                                   Max.-Head-Change                         Max.-Flux-Residual
  Residual-Control   Outer-Iter.   Inner-Iter.     Column Row Layer    Maximum-Head-Change  Column Row Layer    Maximum-Flux-Residual          L2-NORM 
          0                 1           2             2    1     1       0.1875033067E-02       2    1    1         0.9747905469E-01      0.1684122980E+00
          0                 2           2             2    1     1      -0.1823897860E-03       2    1    1        -0.9747918583E-02      0.1684124148E-01
          0                 3           1             2    1     1       0.1242006493E-04       2    1    1         0.6823544652E-03      0.1178887547E-02

    ------------------------------------------------
       NWT REQUIRED            3 OUTER ITERATIONS 
       AND A TOTAL OF          5 INNER ITERATIONS.
    ------------------------------------------------

 NO OUTPUT CONTROL FOR STRESS PERIOD   36   TIME STEP    2
 
 SOLVING FOR HEAD 
                                                   Max.-Head-Change                         Max.-Flux-Residual
  Residual-Control   Outer-Iter.   Inner-Iter.     Column Row Layer    Maximum-Head-Change  Column Row Layer    Maximum-Flux-Residual          L2-NORM 
          0                 1           2             2    1     1       0.1870179141E-02       2    1    1         0.9723500861E-01      0.1703513524E+00
          0                 2           2             2    1     1      -0.1819176334E-03       2    1    1        -0.9723514113E-02      0.1703514695E-01
          0                 3           1             2    1     1       0.1238791286E-04       2    1    1         0.6806461453E-03      0.1192461411E-02

    ------------------------------------------------
       NWT REQUIRED            3 OUTER ITERATIONS 
       AND A TOTAL OF          5 INNER ITERATIONS.
    ------------------------------------------------

 NO OUTPUT CONTROL FOR STRESS PERIOD   36   TIME STEP    3
 
 SOLVING FOR HEAD 
                                                   Max.-Head-Change                         Max.-Flux-Residual
  Residual-Control   Outer-Iter.   Inner-Iter.     Column Row Layer    Maximum-Head-Change  Column Row Layer    Maximum-Flux-Residual          L2-NORM 
          0                 1           2             2    1     1       0.1865336496E-02       2    1    1         0.9698219549E-01      0.1684277890E+00
          0                 2           2             2    1     1      -0.1814465747E-03       2    1    1        -0.9698232693E-02      0.1684279017E-01
          0                 3           1             2    1     1       0.1235583583E-04       2    1    1         0.6788764613E-03      0.1178996098E-02

    ------------------------------------------------
       NWT REQUIRED            3 OUTER ITERATIONS 
       AND A TOTAL OF          5 INNER ITERATIONS.
    ------------------------------------------------

 NO OUTPUT CONTROL FOR STRESS PERIOD   36   TIME STEP    4
 
 SOLVING FOR HEAD 
                                                   Max.-Head-Change                         Max.-Flux-Residual
  Residual-Control   Outer-Iter.   Inner-Iter.     Column Row Layer    Maximum-Head-Change  Column Row Layer    Maximum-Flux-Residual          L2-NORM 
          0                 1           2             2    1     1       0.1860548688E-02       2    1    1         0.9673224816E-01      0.1665718191E+00
          0                 2           2             2    1     1      -0.1809808500E-03       2    1    1        -0.9673237852E-02      0.1665719281E-01
          0                 3           1             2    1     1       0.1232412184E-04       2    1    1         0.6771268270E-03      0.1166005149E-02

    ------------------------------------------------
       NWT REQUIRED            3 OUTER ITERATIONS 
       AND A TOTAL OF          5 INNER ITERATIONS.
    ------------------------------------------------

 NO OUTPUT CONTROL FOR STRESS PERIOD   36   TIME STEP    5
 
 SOLVING FOR HEAD 
                                                   Max.-Head-Change                         Max.-Flux-Residual
  Residual-Control   Outer-Iter.   Inner-Iter.     Column Row Layer    Maximum-Head-Change  Column Row Layer    Maximum-Flux-Residual          L2-NORM 
          0                 1           2             2    1     1       0.1855793404E-02       2    1    1         0.9648400508E-01      0.1647745805E+00
          0                 2           2             2    1     1      -0.1805182892E-03       2    1    1        -0.9648413450E-02      0.1647747009E-01
          0                 3           1             2    1     1       0.1229262347E-04       2    1    1         0.6753891212E-03      0.1153423741E-02

    ------------------------------------------------
       NWT REQUIRED            3 OUTER ITERATIONS 
       AND A TOTAL OF          5 INNER ITERATIONS.
    ------------------------------------------------

 NO OUTPUT CONTROL FOR STRESS PERIOD   36   TIME STEP    6
 
 SOLVING FOR HEAD 
                                                   Max.-Head-Change                         Max.-Flux-Residual
  Residual-Control   Outer-Iter.   Inner-Iter.     Column Row Layer    Maximum-Head-Change  Column Row Layer    Maximum-Flux-Residual          L2-NORM 
          0                 1           2             2    1     1       0.1851070245E-02       2    1    1         0.9623744834E-01      0.1630409064E+00
          0                 2           2             2    1     1      -0.1800588526E-03       2    1    1        -0.9623757651E-02      0.1630410223E-01
          0                 3           1             2    1     1       0.1226133740E-04       2    1    1         0.6736632051E-03      0.1141288157E-02

    ------------------------------------------------
       NWT REQUIRED            3 OUTER ITERATIONS 
       AND A TOTAL OF          5 INNER ITERATIONS.
    ------------------------------------------------

 NO OUTPUT CONTROL FOR STRESS PERIOD   36   TIME STEP    7
 
 SOLVING FOR HEAD 
                                                   Max.-Head-Change                         Max.-Flux-Residual
  Residual-Control   Outer-Iter.   Inner-Iter.     Column Row Layer    Maximum-Head-Change  Column Row Layer    Maximum-Flux-Residual          L2-NORM 
          0                 1           2             2    1     1       0.1846378847E-02       2    1    1         0.9599255725E-01      0.1613648258E+00
          0                 2           2             2    1     1      -0.1796025058E-03       2    1    1        -0.9599268438E-02      0.1613649368E-01
          0                 3           1             2    1     1       0.1223026196E-04       2    1    1         0.6719489584E-03      0.1129557460E-02

    ------------------------------------------------
       NWT REQUIRED            3 OUTER ITERATIONS 
       AND A TOTAL OF          5 INNER ITERATIONS.
    ------------------------------------------------

 NO OUTPUT CONTROL FOR STRESS PERIOD   36   TIME STEP    8
 
 SOLVING FOR HEAD 
                                                   Max.-Head-Change                         Max.-Flux-Residual
  Residual-Control   Outer-Iter.   Inner-Iter.     Column Row Layer    Maximum-Head-Change  Column Row Layer    Maximum-Flux-Residual          L2-NORM 
          0                 1           2             2    1     1       0.1841718952E-02       2    1    1         0.9574931294E-01      0.1597331195E+00
          0                 2           2             2    1     1      -0.1791492230E-03       2    1    1        -0.9574943885E-02      0.1597332273E-01
          0                 3           1             2    1     1       0.1219939479E-04       2    1    1         0.6702462265E-03      0.1118133371E-02

    ------------------------------------------------
       NWT REQUIRED            3 OUTER ITERATIONS 
       AND A TOTAL OF          5 INNER ITERATIONS.
    ------------------------------------------------

 NO OUTPUT CONTROL FOR STRESS PERIOD   36   TIME STEP    9
 
 SOLVING FOR HEAD 
                                                   Max.-Head-Change                         Max.-Flux-Residual
  Residual-Control   Outer-Iter.   Inner-Iter.     Column Row Layer    Maximum-Head-Change  Column Row Layer    Maximum-Flux-Residual          L2-NORM 
          0                 1           2             2    1     1       0.1837068216E-02       2    1    1         0.9550656267E-01      0.1581644061E+00
          0                 2           2             2    1     1      -0.1786968319E-03       2    1    1        -0.9550668760E-02      0.1581645382E-01
          0                 3           1             2    1     1       0.1216858893E-04       2    1    1         0.6685469818E-03      0.1107151881E-02

    ------------------------------------------------
       NWT REQUIRED            3 OUTER ITERATIONS 
       AND A TOTAL OF          5 INNER ITERATIONS.
    ------------------------------------------------

 NO OUTPUT CONTROL FOR STRESS PERIOD   36   TIME STEP   10
 
 SOLVING FOR HEAD 
                                                   Max.-Head-Change                         Max.-Flux-Residual
  Residual-Control   Outer-Iter.   Inner-Iter.     Column Row Layer    Maximum-Head-Change  Column Row Layer    Maximum-Flux-Residual          L2-NORM 
          0                 1           2             2    1     1       0.1832470255E-02       2    1    1         0.9526656598E-01      0.1566343528E+00
          0                 2           2             2    1     1      -0.1782495742E-03       2    1    1        -0.9526668989E-02      0.1566344637E-01
          0                 3           1             2    1     1       0.1213813263E-04       2    1    1         0.6668670055E-03      0.1096442079E-02

    ------------------------------------------------
       NWT REQUIRED            3 OUTER ITERATIONS 
       AND A TOTAL OF          5 INNER ITERATIONS.
    ------------------------------------------------

 NO OUTPUT CONTROL FOR STRESS PERIOD   36   TIME STEP   11
 
 SOLVING FOR HEAD 
                                                   Max.-Head-Change                         Max.-Flux-Residual
  Residual-Control   Outer-Iter.   Inner-Iter.     Column Row Layer    Maximum-Head-Change  Column Row Layer    Maximum-Flux-Residual          L2-NORM 
          0                 1           2             2    1     1       0.1827902650E-02       2    1    1         0.9502816627E-01      0.1551577526E+00
          0                 2           2             2    1     1      -0.1778052690E-03       2    1    1        -0.9502828929E-02      0.1551578692E-01
          0                 3           1             2    1     1       0.1210787655E-04       2    1    1         0.6651981738E-03      0.1086105281E-02

    ------------------------------------------------
       NWT REQUIRED            3 OUTER ITERATIONS 
       AND A TOTAL OF          5 INNER ITERATIONS.
    ------------------------------------------------

 NO OUTPUT CONTROL FOR STRESS PERIOD   36   TIME STEP   12
 
 SOLVING FOR HEAD 
                                                   Max.-Head-Change                         Max.-Flux-Residual
  Residual-Control   Outer-Iter.   Inner-Iter.     Column Row Layer    Maximum-Head-Change  Column Row Layer    Maximum-Flux-Residual          L2-NORM 
          0                 1           2             2    1     1       0.1823343271E-02       2    1    1         0.9479020097E-01      0.1537212408E+00
          0                 2           2             2    1     1      -0.1773617645E-03       2    1    1        -0.9479032284E-02      0.1537213499E-01
          0                 3           1             2    1     1       0.1207767657E-04       2    1    1         0.6635324452E-03      0.1076050025E-02

    ------------------------------------------------
       NWT REQUIRED            3 OUTER ITERATIONS 
       AND A TOTAL OF          5 INNER ITERATIONS.
    ------------------------------------------------

 NO OUTPUT CONTROL FOR STRESS PERIOD   36   TIME STEP   13
 
 SOLVING FOR HEAD 
                                                   Max.-Head-Change                         Max.-Flux-Residual
  Residual-Control   Outer-Iter.   Inner-Iter.     Column Row Layer    Maximum-Head-Change  Column Row Layer    Maximum-Flux-Residual          L2-NORM 
          0                 1           2             2    1     1       0.1818835654E-02       2    1    1         0.9455494124E-01      0.1523285192E+00
          0                 2           2             2    1     1      -0.1769232945E-03       2    1    1        -0.9455506194E-02      0.1523286277E-01
          0                 3           1             2    1     1       0.1204781811E-04       2    1    1         0.6618856138E-03      0.1066301346E-02

    ------------------------------------------------
       NWT REQUIRED            3 OUTER ITERATIONS 
       AND A TOTAL OF          5 INNER ITERATIONS.
    ------------------------------------------------

 NO OUTPUT CONTROL FOR STRESS PERIOD   36   TIME STEP   14
 
 SOLVING FOR HEAD 
                                                   Max.-Head-Change                         Max.-Flux-Residual
  Residual-Control   Outer-Iter.   Inner-Iter.     Column Row Layer    Maximum-Head-Change  Column Row Layer    Maximum-Flux-Residual          L2-NORM 
          0                 1           2             2    1     1       0.1814335567E-02       2    1    1         0.9432008616E-01      0.1509739861E+00
          0                 2           2             2    1     1      -0.1764855572E-03       2    1    1        -0.9432020601E-02      0.1509740912E-01
          0                 3           1             2    1     1       0.1201800958E-04       2    1    1         0.6602416048E-03      0.1056825874E-02

    ------------------------------------------------
       NWT REQUIRED            3 OUTER ITERATIONS 
       AND A TOTAL OF          5 INNER ITERATIONS.
    ------------------------------------------------

 NO OUTPUT CONTROL FOR STRESS PERIOD   36   TIME STEP   15
 
 SOLVING FOR HEAD 
                                                   Max.-Head-Change                         Max.-Flux-Residual
  Residual-Control   Outer-Iter.   Inner-Iter.     Column Row Layer    Maximum-Head-Change  Column Row Layer    Maximum-Flux-Residual          L2-NORM 
          0                 1           2             2    1     1       0.1809886622E-02       2    1    1         0.9408790080E-01      0.1496601222E+00
          0                 2           2             2    1     1      -0.1760527951E-03       2    1    1        -0.9408801993E-02      0.1496602227E-01
          0                 3           1             2    1     1       0.1198853997E-04       2    1    1         0.6586163032E-03      0.1047623684E-02

    ------------------------------------------------
       NWT REQUIRED            3 OUTER ITERATIONS 
       AND A TOTAL OF          5 INNER ITERATIONS.
    ------------------------------------------------

 NO OUTPUT CONTROL FOR STRESS PERIOD   36   TIME STEP   16
 
 SOLVING FOR HEAD 
                                                   Max.-Head-Change                         Max.-Flux-Residual
  Residual-Control   Outer-Iter.   Inner-Iter.     Column Row Layer    Maximum-Head-Change  Column Row Layer    Maximum-Flux-Residual          L2-NORM 
          0                 1           2             2    1     1       0.1805444558E-02       2    1    1         0.9385608761E-01      0.1483783671E+00
          0                 2           2             2    1     1      -0.1756207017E-03       2    1    1        -0.9385620554E-02      0.1483784710E-01
          0                 3           1             2    1     1       0.1195911651E-04       2    1    1         0.6569936080E-03      0.1038650550E-02

    ------------------------------------------------
       NWT REQUIRED            3 OUTER ITERATIONS 
       AND A TOTAL OF          5 INNER ITERATIONS.
    ------------------------------------------------

 NO OUTPUT CONTROL FOR STRESS PERIOD   36   TIME STEP   17
 
 SOLVING FOR HEAD 
                                                   Max.-Head-Change                         Max.-Flux-Residual
  Residual-Control   Outer-Iter.   Inner-Iter.     Column Row Layer    Maximum-Head-Change  Column Row Layer    Maximum-Flux-Residual          L2-NORM 
          0                 1           2             2    1     1       0.1801053002E-02       2    1    1         0.9362691083E-01      0.1471433756E+00
          0                 2           2             2    1     1      -0.1751935215E-03       2    1    1        -0.9362702789E-02      0.1471434800E-01
          0                 3           1             2    1     1       0.1193002677E-04       2    1    1         0.6553893537E-03      0.1030004930E-02

    ------------------------------------------------
       NWT REQUIRED            3 OUTER ITERATIONS 
       AND A TOTAL OF          5 INNER ITERATIONS.
    ------------------------------------------------

 NO OUTPUT CONTROL FOR STRESS PERIOD   36   TIME STEP   18
 
 SOLVING FOR HEAD 
                                                   Max.-Head-Change                         Max.-Flux-Residual
  Residual-Control   Outer-Iter.   Inner-Iter.     Column Row Layer    Maximum-Head-Change  Column Row Layer    Maximum-Flux-Residual          L2-NORM 
          0                 1           2             2    1     1       0.1796667802E-02       2    1    1         0.9339807316E-01      0.1459283331E+00
          0                 2           2             2    1     1      -0.1747669597E-03       2    1    1        -0.9339818912E-02      0.1459284402E-01
          0                 3           1             2    1     1       0.1190097986E-04       2    1    1         0.6537874984E-03      0.1021499465E-02

    ------------------------------------------------
       NWT REQUIRED            3 OUTER ITERATIONS 
       AND A TOTAL OF          5 INNER ITERATIONS.
    ------------------------------------------------

 NO OUTPUT CONTROL FOR STRESS PERIOD   36   TIME STEP   19
 
 SOLVING FOR HEAD 
                                                   Max.-Head-Change                         Max.-Flux-Residual
  Residual-Control   Outer-Iter.   Inner-Iter.     Column Row Layer    Maximum-Head-Change  Column Row Layer    Maximum-Flux-Residual          L2-NORM 
          0                 1           2             2    1     1       0.1792332463E-02       2    1    1         0.9317184477E-01      0.1447548542E+00
          0                 2           2             2    1     1      -0.1743452484E-03       2    1    1        -0.9317195998E-02      0.1447549757E-01
          0                 3           1             2    1     1       0.1187226287E-04       2    1    1         0.6522038966E-03      0.1013286842E-02

    ------------------------------------------------
       NWT REQUIRED            3 OUTER ITERATIONS 
       AND A TOTAL OF          5 INNER ITERATIONS.
    ------------------------------------------------

 NO OUTPUT CONTROL FOR STRESS PERIOD   36   TIME STEP   20
 
 SOLVING FOR HEAD 
                                                   Max.-Head-Change                         Max.-Flux-Residual
  Residual-Control   Outer-Iter.   Inner-Iter.     Column Row Layer    Maximum-Head-Change  Column Row Layer    Maximum-Flux-Residual          L2-NORM 
          0                 1           2             2    1     1       0.1788002898E-02       2    1    1         0.9294592177E-01      0.1436118635E+00
          0                 2           2             2    1     1      -0.1739240981E-03       2    1    1        -0.9294603598E-02      0.1436119724E-01
          0                 3           1             2    1     1       0.1184358422E-04       2    1    1         0.6506224295E-03      0.1005284554E-02

    ------------------------------------------------
       NWT REQUIRED            3 OUTER ITERATIONS 
       AND A TOTAL OF          5 INNER ITERATIONS.
    ------------------------------------------------

 NO OUTPUT CONTROL FOR STRESS PERIOD   36   TIME STEP   21
 
 SOLVING FOR HEAD 
                                                   Max.-Head-Change                         Max.-Flux-Residual
  Residual-Control   Outer-Iter.   Inner-Iter.     Column Row Layer    Maximum-Head-Change  Column Row Layer    Maximum-Flux-Residual          L2-NORM 
          0                 1           2             2    1     1       0.1783700764E-02       2    1    1         0.9272143809E-01      0.1424953268E+00
          0                 2           2             2    1     1      -0.1735056165E-03       2    1    1        -0.9272155145E-02      0.1424954347E-01
          0                 3           1             2    1     1       0.1181508710E-04       2    1    1         0.6490510338E-03      0.9974689407E-03

    ------------------------------------------------
       NWT REQUIRED            3 OUTER ITERATIONS 
       AND A TOTAL OF          5 INNER ITERATIONS.
    ------------------------------------------------

 NO OUTPUT CONTROL FOR STRESS PERIOD   36   TIME STEP   22
 
 SOLVING FOR HEAD 
                                                   Max.-Head-Change                         Max.-Flux-Residual
  Residual-Control   Outer-Iter.   Inner-Iter.     Column Row Layer    Maximum-Head-Change  Column Row Layer    Maximum-Flux-Residual          L2-NORM 
          0                 1           2             2    1     1       0.1779447629E-02       2    1    1         0.9249951678E-01      0.1414137634E+00
          0                 2           2             2    1     1      -0.1730919014E-03       2    1    1        -0.9249962937E-02      0.1414138679E-01
          0                 3           1             2    1     1       0.1178691470E-04       2    1    1         0.6474975844E-03      0.9898982397E-03

    ------------------------------------------------
       NWT REQUIRED            3 OUTER ITERATIONS 
       AND A TOTAL OF          5 INNER ITERATIONS.
    ------------------------------------------------

 NO OUTPUT CONTROL FOR STRESS PERIOD   36   TIME STEP   23
 
 SOLVING FOR HEAD 
                                                   Max.-Head-Change                         Max.-Flux-Residual
  Residual-Control   Outer-Iter.   Inner-Iter.     Column Row Layer    Maximum-Head-Change  Column Row Layer    Maximum-Flux-Residual          L2-NORM 
          0                 1           2             2    1     1       0.1775199353E-02       2    1    1         0.9227785584E-01      0.1403588895E+00
          0                 2           2             2    1     1      -0.1726786580E-03       2    1    1        -0.9227796730E-02      0.1403589933E-01
          0                 3           1             2    1     1       0.1175877401E-04       2    1    1         0.6459459356E-03      0.9825131916E-03

    ------------------------------------------------
       NWT REQUIRED            3 OUTER ITERATIONS 
       AND A TOTAL OF          5 INNER ITERATIONS.
    ------------------------------------------------

 NO OUTPUT CONTROL FOR STRESS PERIOD   36   TIME STEP   24
 
 SOLVING FOR HEAD 
                                                   Max.-Head-Change                         Max.-Flux-Residual
  Residual-Control   Outer-Iter.   Inner-Iter.     Column Row Layer    Maximum-Head-Change  Column Row Layer    Maximum-Flux-Residual          L2-NORM 
          0                 1           2             2    1     1       0.1770977669E-02       2    1    1         0.9205758692E-01      0.1393328691E+00
          0                 2           2             2    1     1      -0.1722680025E-03       2    1    1        -0.9205769772E-02      0.1393329853E-01
          0                 3           1             2    1     1       0.1173081035E-04       2    1    1         0.6444040614E-03      0.9753314124E-03

    ------------------------------------------------
       NWT REQUIRED            3 OUTER ITERATIONS 
       AND A TOTAL OF          5 INNER ITERATIONS.
    ------------------------------------------------

 NO OUTPUT CONTROL FOR STRESS PERIOD   36   TIME STEP   25
 
 SOLVING FOR HEAD 
                                                   Max.-Head-Change                         Max.-Flux-Residual
  Residual-Control   Outer-Iter.   Inner-Iter.     Column Row Layer    Maximum-Head-Change  Column Row Layer    Maximum-Flux-Residual          L2-NORM 
          0                 1           2             2    1     1       0.1766782263E-02       2    1    1         0.9183869672E-01      0.1383301707E+00
          0                 2           2             2    1     1      -0.1718599023E-03       2    1    1        -0.9183880654E-02      0.1383302803E-01
          0                 3           1             2    1     1       0.1170302041E-04       2    1    1         0.6428718256E-03      0.9683128267E-03

    ------------------------------------------------
       NWT REQUIRED            3 OUTER ITERATIONS 
       AND A TOTAL OF          5 INNER ITERATIONS.
    ------------------------------------------------

 NO OUTPUT CONTROL FOR STRESS PERIOD   36   TIME STEP   26
 
 SOLVING FOR HEAD 
                                                   Max.-Head-Change                         Max.-Flux-Residual
  Residual-Control   Outer-Iter.   Inner-Iter.     Column Row Layer    Maximum-Head-Change  Column Row Layer    Maximum-Flux-Residual          L2-NORM 
          0                 1           2             2    1     1       0.1762612889E-02       2    1    1         0.9162116908E-01      0.1373560669E+00
          0                 2           2             2    1     1      -0.1714543347E-03       2    1    1        -0.9162127825E-02      0.1373561717E-01
          0                 3           1             2    1     1       0.1167540277E-04       2    1    1         0.6413491178E-03      0.9614935749E-03

    ------------------------------------------------
       NWT REQUIRED            3 OUTER ITERATIONS 
       AND A TOTAL OF          5 INNER ITERATIONS.
    ------------------------------------------------

 NO OUTPUT CONTROL FOR STRESS PERIOD   36   TIME STEP   27
 
 SOLVING FOR HEAD 
                                                   Max.-Head-Change                         Max.-Flux-Residual
  Residual-Control   Outer-Iter.   Inner-Iter.     Column Row Layer    Maximum-Head-Change  Column Row Layer    Maximum-Flux-Residual          L2-NORM 
          0                 1           2             2    1     1       0.1758491282E-02       2    1    1         0.9140613151E-01      0.1364024655E+00
          0                 2           2             2    1     1      -0.1710534135E-03       2    1    1        -0.9140623985E-02      0.1364025701E-01
          0                 3           1             2    1     1       0.1164810133E-04       2    1    1         0.6398438407E-03      0.9548185269E-03

    ------------------------------------------------
       NWT REQUIRED            3 OUTER ITERATIONS 
       AND A TOTAL OF          5 INNER ITERATIONS.
    ------------------------------------------------

 NO OUTPUT CONTROL FOR STRESS PERIOD   36   TIME STEP   28
 
 SOLVING FOR HEAD 
                                                   Max.-Head-Change                         Max.-Flux-Residual
  Residual-Control   Outer-Iter.   Inner-Iter.     Column Row Layer    Maximum-Head-Change  Column Row Layer    Maximum-Flux-Residual          L2-NORM 
          0                 1           2             2    1     1       0.1754373165E-02       2    1    1         0.9119128984E-01      0.1354790893E+00
          0                 2           2             2    1     1      -0.1706528322E-03       2    1    1        -0.9119139737E-02      0.1354791955E-01
          0                 3           1             2    1     1       0.1162082379E-04       2    1    1         0.6383399672E-03      0.9483554025E-03

    ------------------------------------------------
       NWT REQUIRED            3 OUTER ITERATIONS 
       AND A TOTAL OF          5 INNER ITERATIONS.
    ------------------------------------------------

 NO OUTPUT CONTROL FOR STRESS PERIOD   36   TIME STEP   29
 
 SOLVING FOR HEAD 
                                                   Max.-Head-Change                         Max.-Flux-Residual
  Residual-Control   Outer-Iter.   Inner-Iter.     Column Row Layer    Maximum-Head-Change  Column Row Layer    Maximum-Flux-Residual          L2-NORM 
          0                 1           2             2    1     1       0.1750280268E-02       2    1    1         0.9097776957E-01      0.1345739630E+00
          0                 2           2             2    1     1      -0.1702547034E-03       2    1    1        -0.9097787632E-02      0.1345844065E-01
          0                 3           1             2    1     1       0.1159371239E-04       2    1    1         0.6368453013E-03      0.9420925488E-03

    ------------------------------------------------
       NWT REQUIRED            3 OUTER ITERATIONS 
       AND A TOTAL OF          5 INNER ITERATIONS.
    ------------------------------------------------

 NO OUTPUT CONTROL FOR STRESS PERIOD   36   TIME STEP   30



 STREAM LISTING     PERIOD     36   STEP       30

 LAYER ROW COL. STREAM  RCH.  FLOW INTO     FLOW TO   FLOW OUT OF   OVRLND.     DIRECT     STREAM       STREAM     STREAM     STREAM   STREAMBED  STREAMBED
                SEG.NO.  NO.  STRM. RCH.    AQUIFER    STRM. RCH.    RUNOFF     PRECIP       ET          HEAD       DEPTH      WIDTH   CONDCTNC.   GRADIENT

   1    1    1     1     1    1.9499E+01  2.1750E-01   1.9282E+01  0.000E+00  0.000E+00  0.000E+00  1.09414E+03  1.090E+00  1.182E+01  5.318E-02  1.363E+00
   1    2    2     1     2    1.9282E+01  3.3555E-01   1.8946E+01  0.000E+00  0.000E+00  0.000E+00  1.08914E+03  1.086E+00  1.173E+01  8.213E-02  1.362E+00
   1    3    3     1     3    1.8946E+01  2.8492E-01   1.8661E+01  0.000E+00  0.000E+00  0.000E+00  1.08350E+03  1.081E+00  1.164E+01  6.982E-02  1.360E+00
   1    3    4     1     4    1.8661E+01  2.6135E-01   1.8400E+01  0.000E+00  0.000E+00  0.000E+00  1.07848E+03  1.076E+00  1.155E+01  6.412E-02  1.359E+00
   1    4    5     2     1    1.6400E+01  3.0673E-01   1.6093E+01  0.000E+00  0.000E+00  0.000E+00  1.07287E+03  9.324E-01  1.200E+01  7.800E-02  1.311E+00
   1    5    6     2     2    1.6093E+01  2.3538E-01   1.5858E+01  0.000E+00  0.000E+00  0.000E+00  1.06743E+03  9.230E-01  1.200E+01  6.000E-02  1.308E+00
   1    6    6     2     3    1.5858E+01  2.3489E-01   1.5623E+01  0.000E+00  0.000E+00  0.000E+00  1.06271E+03  9.149E-01  1.200E+01  6.000E-02  1.305E+00
   1    7    6     2     4    1.5623E+01  2.3440E-01   1.5389E+01  0.000E+00  0.000E+00  0.000E+00  1.05798E+03  9.067E-01  1.200E+01  6.000E-02  1.302E+00
   1    8    6     2     5    1.5389E+01  2.3390E-01   1.5155E+01  0.000E+00  0.000E+00  0.000E+00  1.05326E+03  8.984E-01  1.200E+01  6.000E-02  1.299E+00
   1    3    5     3     1    2.0000E+00  2.8252E-01   1.7175E+00  0.000E+00  0.000E+00  0.000E+00  1.07555E+03  1.909E+00  9.636E+00  7.227E-02  1.955E+00
   1    3    6     3     2    1.7175E+00  2.4905E-01   1.4684E+00  0.000E+00  0.000E+00  0.000E+00  1.07264E+03  1.727E+00  8.909E+00  6.682E-02  1.864E+00
   1    3    7     3     3    1.4684E+00  1.9718E-01   1.2712E+00  0.000E+00  0.000E+00  0.000E+00  1.06987E+03  1.555E+00  8.218E+00  5.547E-02  1.777E+00
   1    4    8     3     4    1.2712E+00  2.2567E-01   1.0456E+00  0.000E+00  0.000E+00  0.000E+00  1.06682E+03  1.364E+00  7.455E+00  6.709E-02  1.682E+00
   1    5    8     3     5    1.0456E+00  1.5790E-01   8.8768E-01  0.000E+00  0.000E+00  0.000E+00  1.06362E+03  1.164E+00  6.655E+00  4.991E-02  1.582E+00
   1    6    8     3     6    8.8768E-01  5.5980E-02   8.3170E-01  0.000E+00  0.000E+00  0.000E+00  1.06158E+03  1.036E+00  6.145E+00  1.844E-02  1.518E+00
   1    5   10     4     1    1.0000E+01  9.0919E-02   9.9091E+00  0.000E+00  0.000E+00  0.000E+00  1.07836E+03  6.368E-01  1.000E+01  2.500E-02  1.212E+00
   1    5    9     4     2    9.9091E+00  1.8158E-01   9.7275E+00  0.000E+00  0.000E+00  0.000E+00  1.07154E+03  6.315E-01  1.000E+01  5.000E-02  1.211E+00
   1    6    8     4     3    9.7275E+00  1.2689E-01   9.6006E+00  0.000E+00  0.000E+00  0.000E+00  1.06381E+03  6.256E-01  1.000E+01  3.500E-02  1.209E+00
   1    6    8     5     1    1.0432E+01  2.2686E-01   1.0205E+01  0.000E+00  0.000E+00  0.000E+00  1.05868E+03  6.790E-01  1.542E+01  6.166E-02  1.226E+00
   1    7    7     5     2    1.0205E+01  2.7894E-01   9.9265E+00  0.000E+00  0.000E+00  0.000E+00  1.05417E+03  6.732E-01  1.519E+01  7.594E-02  1.224E+00
   1    8    7     5     3    9.9265E+00  1.9221E-01   9.7343E+00  0.000E+00  0.000E+00  0.000E+00  1.04992E+03  6.676E-01  1.497E+01  5.241E-02  1.223E+00
   1    8    6     5     4    9.7343E+00  1.3577E-01   9.5985E+00  0.000E+00  0.000E+00  0.000E+00  1.04691E+03  6.637E-01  1.482E+01  3.706E-02  1.221E+00
   1    9    6     6     1    9.5985E+00  2.2097E-01   9.3776E+00  0.000E+00  0.000E+00  0.000E+00  1.04341E+03  6.828E-01  1.200E+01  6.000E-02  1.228E+00
   1   10    7     6     2    9.3776E+00  2.2039E-01   9.1572E+00  0.000E+00  0.000E+00  0.000E+00  1.03885E+03  6.732E-01  1.200E+01  6.000E-02  1.224E+00
   1   11    7     6     3    9.1572E+00  2.1981E-01   8.9374E+00  0.000E+00  0.000E+00  0.000E+00  1.03430E+03  6.636E-01  1.200E+01  6.000E-02  1.221E+00
   1   12    7     6     4    8.9374E+00  2.1923E-01   8.7181E+00  0.000E+00  0.000E+00  0.000E+00  1.02974E+03  6.539E-01  1.200E+01  6.000E-02  1.218E+00
   1   13    7     6     5    8.7181E+00 -1.1030E-01   8.8284E+00  0.000E+00  0.000E+00  0.000E+00  1.02656E+03  6.514E-01  1.200E+01  2.400E-01 -1.532E-01
   1   14    9     7     1    1.5000E+02  1.3452E+00   1.4865E+02  0.000E+00  0.000E+00  0.000E+00  1.03987E+03  2.288E+00  5.529E+01  5.593E-01  8.017E-01
   1   13    8     7     2    1.4865E+02  1.8504E+00   1.4680E+02  0.000E+00  0.000E+00  0.000E+00  1.03478E+03  2.279E+00  5.526E+01  6.148E-01  1.003E+00
   1   13    7     7     3    1.4680E+02  1.4908E+00   1.4531E+02  0.000E+00  0.000E+00  0.000E+00  1.02969E+03  2.270E+00  5.522E+01  5.584E-01  8.898E-01
   1   13    6     8     1    1.5414E+02  8.4288E-01   1.5330E+02  0.000E+00  0.000E+00  0.000E+00  1.02472E+03  2.843E+00  4.122E+01  4.201E-01  6.689E-01
   1   13    5     8     2    1.5330E+02  1.1255E-01   1.5319E+02  0.000E+00  0.000E+00  0.000E+00  1.01846E+03  2.840E+00  4.117E+01  4.196E-01  8.942E-02
   1   13    4     8     3    1.5319E+02 -2.6388E+00   1.5583E+02  0.000E+00  0.000E+00  0.000E+00  1.01222E+03  2.848E+00  4.130E+01  4.209E+00 -2.090E-01
   1   13    3     8     4    1.5583E+02 -3.7264E+00   1.5955E+02  0.000E+00  0.000E+00  0.000E+00  1.00600E+03  2.870E+00  4.162E+01  4.241E+00 -2.929E-01
   1   13    2     8     5    1.5955E+02 -2.5926E+00   1.6214E+02  0.000E+00  0.000E+00  0.000E+00  9.99767E+02  2.892E+00  4.193E+01  4.273E+00 -2.023E-01
   1   13    1     8     6    1.6214E+02 -1.9792E+00   1.6412E+02  0.000E+00  0.000E+00  0.000E+00  9.94782E+02  2.907E+00  4.215E+01  2.577E+00 -2.560E-01
   1    8    6     9     1    1.5155E+01  0.0000E+00   1.5155E+01  0.000E+00  0.000E+00  0.000E+00  1.08166E+03  2.908E+00  4.000E+00  0.000E+00  1.969E+00
   1    8    5     9     2    1.5155E+01  0.0000E+00   1.5155E+01  0.000E+00  0.000E+00  0.000E+00  1.08116E+03  2.908E+00  4.000E+00  0.000E+00  1.969E+00





UNSATURATED ZONE PACKAGE VOLUMETRIC BUDGET FOR  TIME STEP    30 STRESS PERIOD   36
  ------------------------------------------------------------------------------



     CUMULATIVE VOLUMES      L**3       RATES FOR THIS TIME STEP      L**3/T
     ------------------                 ------------------------

           IN:                                      IN:
           ---                                      ---
        INFILTRATION =    78085594.5460          INFILTRATION =           0.8475

          OUT:                                     OUT:
          ----                                     ----
              UZF ET =    77022800.2069                UZF ET =           0.7500
        UZF RECHARGE =       73224.0000          UZF RECHARGE =       0.0000E+00

            IN - OUT =      989570.3391              IN - OUT =       9.7500E-02

          STORAGE:                                 STORAGE:
          --------                                 --------
      STORAGE CHANGE =      989570.6287        STORAGE CHANGE =       9.7500E-02

 PERCENT DISCREPANCY IS DIFFERENCE BETWEEN IN-OUT MINUS CHANGE IN STORAGE
 DIVIDED BY THE AVERAGE OF IN AND OUT TIMES 100

 PERCENT DISCREPANCY =           0.00     PERCENT DISCREPANCY =           0.00






1
  VOLUMETRIC BUDGET FOR ENTIRE MODEL AT END OF TIME STEP   30, STRESS PERIOD  36
  ------------------------------------------------------------------------------

     CUMULATIVE VOLUMES      L**3       RATES FOR THIS TIME STEP      L**3/T
     ------------------                 ------------------------

           IN:                                      IN:
           ---                                      ---
             STORAGE     =    28762022.0000               STORAGE     =           0.2121
       CONSTANT HEAD     =           0.0000         CONSTANT HEAD     =           0.0000
     HEAD DEP BOUNDS     =    26363418.0000       HEAD DEP BOUNDS     =           0.2864
      STREAM LEAKAGE     =  1081565824.0000        STREAM LEAKAGE     =          11.2682
        UZF RECHARGE     =       73223.9531          UZF RECHARGE     =           0.0000
               GW ET     =           0.0000                 GW ET     =           0.0000
     SURFACE LEAKAGE     =           0.0000       SURFACE LEAKAGE     =           0.0000

                TOTAL IN =  1136764416.0000                  TOTAL IN =          11.7667

          OUT:                                     OUT:
          ----                                     ----
             STORAGE     =    90186616.0000               STORAGE     =           0.4326
       CONSTANT HEAD     =           0.0000         CONSTANT HEAD     =           0.0000
     HEAD DEP BOUNDS     =    26435836.0000       HEAD DEP BOUNDS     =           0.2869
      STREAM LEAKAGE     =  1020158336.0000        STREAM LEAKAGE     =          11.0473
        UZF RECHARGE     =           0.0000          UZF RECHARGE     =           0.0000
               GW ET     =           0.0000                 GW ET     =           0.0000
     SURFACE LEAKAGE     =           0.0000       SURFACE LEAKAGE     =           0.0000

               TOTAL OUT =  1136780800.0000                 TOTAL OUT =          11.7668

                IN - OUT =      -16384.0000                  IN - OUT =      -5.8174E-05

     PERCENT DISCREPANCY =          -0.00         PERCENT DISCREPANCY =          -0.00






         TIME SUMMARY AT END OF TIME STEP   30 IN STRESS PERIOD   36
                    SECONDS     MINUTES      HOURS       DAYS        YEARS
                    -----------------------------------------------------------
   TIME STEP LENGTH  87667.      1461.1      24.352      1.0147     2.77799E-03
 STRESS PERIOD TIME 2.63000E+06  43833.      730.56      30.440     8.33397E-02
         TOTAL TIME 9.21360E+07 1.53560E+06  25593.      1066.4      2.9196    
1
1
                            STRESS PERIOD NO.   37, LENGTH =   2630000.    
                            -----------------------------------------------

                              NUMBER OF TIME STEPS =    30

                               MULTIPLIER FOR DELT =     1.000

                            INITIAL TIME STEP SIZE =   87666.66    

 REUSING NON-PARAMETER GHB CELLS FROM LAST STRESS PERIOD

      2 GHB CELLS

 REUSING STREAM SEGMENT DATA FROM LAST STRESS PERIOD



            AREAL INFILTRATION RATE
 READING ON UNIT   19 WITH FORMAT: (FREE)              

            1           2           3           4           5           6           7           8           9          10
 ........................................................................................................................
   1   1.0000E-10  2.0000E-10   0.000       0.000       0.000       0.000       0.000       0.000       0.000       0.000    
   2   2.0000E-10  1.0000E-10  2.0000E-10   0.000       0.000      8.0000E-10  8.0000E-10  5.0000E-10   0.000       0.000    
   3    0.000      5.0000E-10  1.0000E-10  1.0000E-10  8.0000E-10  8.0000E-10  5.0000E-10  5.0000E-10   0.000       0.000    
   4   8.0000E-10  5.0000E-10  1.0000E-10  1.0000E-10  1.0000E-10  1.0000E-10  1.0000E-10  1.0000E-10  2.0000E-10   0.000    
   5   8.0000E-10  5.0000E-10  1.0000E-10  1.0000E-10  1.0000E-10  1.0000E-10  1.0000E-10  1.0000E-10  1.0000E-10  1.0000E-10
   6   8.0000E-10  5.0000E-10  5.0000E-10  2.0000E-10  2.0000E-10  1.0000E-10  1.0000E-10  1.0000E-10  1.0000E-10  5.0000E-10
   7   8.0000E-10  5.0000E-10  5.0000E-10  2.0000E-10  2.0000E-10  1.0000E-10  1.0000E-10  2.0000E-10  2.0000E-10   0.000    
   8    0.000      5.0000E-10  5.0000E-10  2.0000E-10  2.0000E-10  1.0000E-10  1.0000E-10  2.0000E-10  5.0000E-10   0.000    
   9    0.000      5.0000E-10  5.0000E-10  2.0000E-10  2.0000E-10  1.0000E-10  1.0000E-10  2.0000E-10  5.0000E-10   0.000    
  10    0.000      5.0000E-10  5.0000E-10  2.0000E-10  2.0000E-10  1.0000E-10  1.0000E-10  2.0000E-10  5.0000E-10  8.0000E-10
  11    0.000      1.0000E-10  1.0000E-10  1.0000E-10  1.0000E-10  1.0000E-10  1.0000E-10  2.0000E-10  5.0000E-10   0.000    
  12   1.0000E-10  1.0000E-10  1.0000E-10  1.0000E-10  1.0000E-10  1.0000E-10  1.0000E-10  1.0000E-10  2.0000E-10   0.000    
  13   1.0000E-10  1.0000E-10  2.0000E-10  2.0000E-10  2.0000E-10  2.0000E-10  2.0000E-10  1.0000E-10  1.0000E-10   0.000    
  14    0.000      2.0000E-10  5.0000E-10  5.0000E-10  5.0000E-10  5.0000E-10  5.0000E-10  2.0000E-10  1.0000E-10   0.000    
  15    0.000       0.000      8.0000E-10  8.0000E-10  8.0000E-10  8.0000E-10   0.000       0.000       0.000       0.000    

                  ET RATE =  5.000000E-10

 USING ET EXTINCTION DEPTH FROM PREVIOUS STRESS PERIOD. CURRENT PERIOD IS:      37

 USING EXTINCTION WATER CONTENT FROM PREVIOUS STRESS PERIOD. CURRENT PERIOD IS:      37

 USING AIR ENTRY PRESSURE FROM PREVIOUS STRESS PERIOD. CURRENT PERIOD IS:      37

 USING ROOT PRESSURE HEAD FROM PREVIOUS STRESS PERIOD. CURRENT PERIOD IS:      37

 USING ROOT ACTIVITY FROM PREVIOUS STRESS PERIOD. CURRENT PERIOD IS:      37
 
 SOLVING FOR HEAD 
                                                   Max.-Head-Change                         Max.-Flux-Residual
  Residual-Control   Outer-Iter.   Inner-Iter.     Column Row Layer    Maximum-Head-Change  Column Row Layer    Maximum-Flux-Residual          L2-NORM 
          0                 1           2             2    1     1       0.1745981472E-02       2    1    1         0.9076555687E-01      0.1374068329E+00
          0                 2           2             2    1     1      -0.1698365512E-03       2    1    1        -0.9076566581E-02      0.1374069332E-01
          0                 3           1             2    1     1       0.1156523752E-04       2    1    1         0.6353598271E-03      0.9618488746E-03

    ------------------------------------------------
       NWT REQUIRED            3 OUTER ITERATIONS 
       AND A TOTAL OF          5 INNER ITERATIONS.
    ------------------------------------------------

 NO OUTPUT CONTROL FOR STRESS PERIOD   37   TIME STEP    1
 
 SOLVING FOR HEAD 
                                                   Max.-Head-Change                         Max.-Flux-Residual
  Residual-Control   Outer-Iter.   Inner-Iter.     Column Row Layer    Maximum-Head-Change  Column Row Layer    Maximum-Flux-Residual          L2-NORM 
          0                 1           2             2    1     1       0.1741070984E-02       2    1    1         0.9054266481E-01      0.1499492942E+00
          0                 2           2             2    1     1      -0.1693589054E-03       2    1    1        -0.9054278060E-02      0.1499494016E-01
          0                 3           1             2    1     1       0.1153271127E-04       2    1    1         0.6337996413E-03      0.1049647868E-02

    ------------------------------------------------
       NWT REQUIRED            3 OUTER ITERATIONS 
       AND A TOTAL OF          5 INNER ITERATIONS.
    ------------------------------------------------

 NO OUTPUT CONTROL FOR STRESS PERIOD   37   TIME STEP    2
 
 SOLVING FOR HEAD 
                                                   Max.-Head-Change                         Max.-Flux-Residual
  Residual-Control   Outer-Iter.   Inner-Iter.     Column Row Layer    Maximum-Head-Change  Column Row Layer    Maximum-Flux-Residual          L2-NORM 
          0                 1           2             2    1     1       0.1736191483E-02       2    1    1         0.9028805054E-01      0.1485780404E+00
          0                 2           2             2    1     1      -0.1688842610E-03       2    1    1        -0.9028816512E-02      0.1485781431E-01
          0                 3           1             2    1     1       0.1150038975E-04       2    1    1         0.6320173323E-03      0.1040048092E-02

    ------------------------------------------------
       NWT REQUIRED            3 OUTER ITERATIONS 
       AND A TOTAL OF          5 INNER ITERATIONS.
    ------------------------------------------------

 NO OUTPUT CONTROL FOR STRESS PERIOD   37   TIME STEP    3
 
 SOLVING FOR HEAD 
                                                   Max.-Head-Change                         Max.-Flux-Residual
  Residual-Control   Outer-Iter.   Inner-Iter.     Column Row Layer    Maximum-Head-Change  Column Row Layer    Maximum-Flux-Residual          L2-NORM 
          0                 1           2             2    1     1       0.1731342704E-02       2    1    1         0.9003505308E-01      0.1472423758E+00
          0                 2           2             2    1     1      -0.1684126054E-03       2    1    1        -0.9003516671E-02      0.1472424769E-01
          0                 3           1             2    1     1       0.1146827153E-04       2    1    1         0.6302463339E-03      0.1030697735E-02

    ------------------------------------------------
       NWT REQUIRED            3 OUTER ITERATIONS 
       AND A TOTAL OF          5 INNER ITERATIONS.
    ------------------------------------------------

 NO OUTPUT CONTROL FOR STRESS PERIOD   37   TIME STEP    4
 
 SOLVING FOR HEAD 
                                                   Max.-Head-Change                         Max.-Flux-Residual
  Residual-Control   Outer-Iter.   Inner-Iter.     Column Row Layer    Maximum-Head-Change  Column Row Layer    Maximum-Flux-Residual          L2-NORM 
          0                 1           2             2    1     1       0.1726524456E-02       2    1    1         0.8978364856E-01      0.1459427353E+00
          0                 2           2             2    1     1      -0.1679439202E-03       2    1    1        -0.8978376146E-02      0.1459428381E-01
          0                 3           1             2    1     1       0.1143635591E-04       2    1    1         0.6284864887E-03      0.1021600387E-02

    ------------------------------------------------
       NWT REQUIRED            3 OUTER ITERATIONS 
       AND A TOTAL OF          5 INNER ITERATIONS.
    ------------------------------------------------

 NO OUTPUT CONTROL FOR STRESS PERIOD   37   TIME STEP    5
 
 SOLVING FOR HEAD 
                                                   Max.-Head-Change                         Max.-Flux-Residual
  Residual-Control   Outer-Iter.   Inner-Iter.     Column Row Layer    Maximum-Head-Change  Column Row Layer    Maximum-Flux-Residual          L2-NORM 
          0                 1           2             2    1     1       0.1721714340E-02       2    1    1         0.8953268619E-01      0.1446775201E+00
          0                 2           2             2    1     1      -0.1674760254E-03       2    1    1        -0.8953279806E-02      0.1446776236E-01
          0                 3           1             2    1     1       0.1140449424E-04       2    1    1         0.6267297435E-03      0.1012743977E-02

    ------------------------------------------------
       NWT REQUIRED            3 OUTER ITERATIONS 
       AND A TOTAL OF          5 INNER ITERATIONS.
    ------------------------------------------------

 NO OUTPUT CONTROL FOR STRESS PERIOD   37   TIME STEP    6
 
 SOLVING FOR HEAD 
                                                   Max.-Head-Change                         Max.-Flux-Residual
  Residual-Control   Outer-Iter.   Inner-Iter.     Column Row Layer    Maximum-Head-Change  Column Row Layer    Maximum-Flux-Residual          L2-NORM 
          0                 1           2             2    1     1       0.1716956122E-02       2    1    1         0.8928442710E-01      0.1434449453E+00
          0                 2           2             2    1     1      -0.1670131792E-03       2    1    1        -0.8928453792E-02      0.1434450420E-01
          0                 3           1             2    1     1       0.1137297622E-04       2    1    1         0.6249919376E-03      0.1004115932E-02

    ------------------------------------------------
       NWT REQUIRED            3 OUTER ITERATIONS 
       AND A TOTAL OF          5 INNER ITERATIONS.
    ------------------------------------------------

 NO OUTPUT CONTROL FOR STRESS PERIOD   37   TIME STEP    7
 
 SOLVING FOR HEAD 
                                                   Max.-Head-Change                         Max.-Flux-Residual
  Residual-Control   Outer-Iter.   Inner-Iter.     Column Row Layer    Maximum-Head-Change  Column Row Layer    Maximum-Flux-Residual          L2-NORM 
          0                 1           2             2    1     1       0.1712227461E-02       2    1    1         0.8903771809E-01      0.1422396906E+00
          0                 2           2             2    1     1      -0.1665532079E-03       2    1    1        -0.8903782807E-02      0.1422397923E-01
          0                 3           1             2    1     1       0.1134165370E-04       2    1    1         0.6232649609E-03      0.9956796554E-03

    ------------------------------------------------
       NWT REQUIRED            3 OUTER ITERATIONS 
       AND A TOTAL OF          5 INNER ITERATIONS.
    ------------------------------------------------

 NO OUTPUT CONTROL FOR STRESS PERIOD   37   TIME STEP    8
 
 SOLVING FOR HEAD 
                                                   Max.-Head-Change                         Max.-Flux-Residual
  Residual-Control   Outer-Iter.   Inner-Iter.     Column Row Layer    Maximum-Head-Change  Column Row Layer    Maximum-Flux-Residual          L2-NORM 
          0                 1           2             2    1     1       0.1707528078E-02       2    1    1         0.8879254152E-01      0.1410650310E+00
          0                 2           2             2    1     1      -0.1660960850E-03       2    1    1        -0.8879265076E-02      0.1410651350E-01
          0                 3           1             2    1     1       0.1131052525E-04       2    1    1         0.6215487162E-03      0.9874569337E-03

    ------------------------------------------------
       NWT REQUIRED            3 OUTER ITERATIONS 
       AND A TOTAL OF          5 INNER ITERATIONS.
    ------------------------------------------------

 NO OUTPUT CONTROL FOR STRESS PERIOD   37   TIME STEP    9
 
 SOLVING FOR HEAD 
                                                   Max.-Head-Change                         Max.-Flux-Residual
  Residual-Control   Outer-Iter.   Inner-Iter.     Column Row Layer    Maximum-Head-Change  Column Row Layer    Maximum-Flux-Residual          L2-NORM 
          0                 1           2             2    1     1       0.1702857642E-02       2    1    1         0.8854888302E-01      0.1399229058E+00
          0                 2           2             2    1     1      -0.1656417777E-03       2    1    1        -0.8854899140E-02      0.1399230084E-01
          0                 3           1             2    1     1       0.1127958897E-04       2    1    1         0.6198431136E-03      0.9794616879E-03

    ------------------------------------------------
       NWT REQUIRED            3 OUTER ITERATIONS 
       AND A TOTAL OF          5 INNER ITERATIONS.
    ------------------------------------------------

 NO OUTPUT CONTROL FOR STRESS PERIOD   37   TIME STEP   10
 
 SOLVING FOR HEAD 
                                                   Max.-Head-Change                         Max.-Flux-Residual
  Residual-Control   Outer-Iter.   Inner-Iter.     Column Row Layer    Maximum-Head-Change  Column Row Layer    Maximum-Flux-Residual          L2-NORM 
          0                 1           2             2    1     1       0.1698193931E-02       2    1    1         0.8830558428E-01      0.1388049632E+00
          0                 2           2             2    1     1      -0.1651881239E-03       2    1    1        -0.8830569157E-02      0.1388050596E-01
          0                 3           1             2    1     1       0.1124869648E-04       2    1    1         0.6181399989E-03      0.9716357536E-03

    ------------------------------------------------
       NWT REQUIRED            3 OUTER ITERATIONS 
       AND A TOTAL OF          5 INNER ITERATIONS.
    ------------------------------------------------

 NO OUTPUT CONTROL FOR STRESS PERIOD   37   TIME STEP   11
 
 SOLVING FOR HEAD 
                                                   Max.-Head-Change                         Max.-Flux-Residual
  Residual-Control   Outer-Iter.   Inner-Iter.     Column Row Layer    Maximum-Head-Change  Column Row Layer    Maximum-Flux-Residual          L2-NORM 
          0                 1           2             2    1     1       0.1693580713E-02       2    1    1         0.8806491645E-01      0.1377160467E+00
          0                 2           2             2    1     1      -0.1647393828E-03       2    1    1        -0.8806502310E-02      0.1377161474E-01
          0                 3           1             2    1     1       0.1121813913E-04       2    1    1         0.6164553273E-03      0.9640134898E-03

    ------------------------------------------------
       NWT REQUIRED            3 OUTER ITERATIONS 
       AND A TOTAL OF          5 INNER ITERATIONS.
    ------------------------------------------------

 NO OUTPUT CONTROL FOR STRESS PERIOD   37   TIME STEP   12
 
 SOLVING FOR HEAD 
                                                   Max.-Head-Change                         Max.-Flux-Residual
  Residual-Control   Outer-Iter.   Inner-Iter.     Column Row Layer    Maximum-Head-Change  Column Row Layer    Maximum-Flux-Residual          L2-NORM 
          0                 1           2             2    1     1       0.1688973605E-02       2    1    1         0.8782458433E-01      0.1366518567E+00
          0                 2           2             2    1     1      -0.1642912354E-03       2    1    1        -0.8782469010E-02      0.1366519551E-01
          0                 3           1             2    1     1       0.1118762200E-04       2    1    1         0.6147729969E-03      0.9565643324E-03

    ------------------------------------------------
       NWT REQUIRED            3 OUTER ITERATIONS 
       AND A TOTAL OF          5 INNER ITERATIONS.
    ------------------------------------------------

 NO OUTPUT CONTROL FOR STRESS PERIOD   37   TIME STEP   13
 
 SOLVING FOR HEAD 
                                                   Max.-Head-Change                         Max.-Flux-Residual
  Residual-Control   Outer-Iter.   Inner-Iter.     Column Row Layer    Maximum-Head-Change  Column Row Layer    Maximum-Flux-Residual          L2-NORM 
          0                 1           2             2    1     1       0.1684416314E-02       2    1    1         0.8758685138E-01      0.1356116812E+00
          0                 2           2             2    1     1      -0.1638479343E-03       2    1    1        -0.8758695642E-02      0.1356117825E-01
          0                 3           1             2    1     1       0.1115743503E-04       2    1    1         0.6131088636E-03      0.9492832623E-03

    ------------------------------------------------
       NWT REQUIRED            3 OUTER ITERATIONS 
       AND A TOTAL OF          5 INNER ITERATIONS.
    ------------------------------------------------

 NO OUTPUT CONTROL FOR STRESS PERIOD   37   TIME STEP   14
 
 SOLVING FOR HEAD 
                                                   Max.-Head-Change                         Max.-Flux-Residual
  Residual-Control   Outer-Iter.   Inner-Iter.     Column Row Layer    Maximum-Head-Change  Column Row Layer    Maximum-Flux-Residual          L2-NORM 
          0                 1           2             2    1     1       0.1679886650E-02       2    1    1         0.8735056024E-01      0.1346025331E+00
          0                 2           2             2    1     1      -0.1634073199E-03       2    1    1        -0.8735066421E-02      0.1346026230E-01
          0                 3           1             2    1     1       0.1112743078E-04       2    1    1         0.6114548179E-03      0.9422179428E-03

    ------------------------------------------------
       NWT REQUIRED            3 OUTER ITERATIONS 
       AND A TOTAL OF          5 INNER ITERATIONS.
    ------------------------------------------------

 NO OUTPUT CONTROL FOR STRESS PERIOD   37   TIME STEP   15
 
 SOLVING FOR HEAD 
                                                   Max.-Head-Change                         Max.-Flux-Residual
  Residual-Control   Outer-Iter.   Inner-Iter.     Column Row Layer    Maximum-Head-Change  Column Row Layer    Maximum-Flux-Residual          L2-NORM 
          0                 1           2             2    1     1       0.1675362347E-02       2    1    1         0.8711456014E-01      0.1336060619E+00
          0                 2           2             2    1     1      -0.1629672271E-03       2    1    1        -0.8711466336E-02      0.1336061757E-01
          0                 3           1             2    1     1       0.1109746179E-04       2    1    1         0.6098027916E-03      0.9352519612E-03

    ------------------------------------------------
       NWT REQUIRED            3 OUTER ITERATIONS 
       AND A TOTAL OF          5 INNER ITERATIONS.
    ------------------------------------------------

 NO OUTPUT CONTROL FOR STRESS PERIOD   37   TIME STEP   16
 
 SOLVING FOR HEAD 
                                                   Max.-Head-Change                         Max.-Flux-Residual
  Residual-Control   Outer-Iter.   Inner-Iter.     Column Row Layer    Maximum-Head-Change  Column Row Layer    Maximum-Flux-Residual          L2-NORM 
          0                 1           2             2    1     1       0.1670887028E-02       2    1    1         0.8688112070E-01      0.1326432603E+00
          0                 2           2             2    1     1      -0.1625319000E-03       2    1    1        -0.8688122336E-02      0.1326433566E-01
          0                 3           1             2    1     1       0.1106781823E-04       2    1    1         0.6081687293E-03      0.9285038719E-03

    ------------------------------------------------
       NWT REQUIRED            3 OUTER ITERATIONS 
       AND A TOTAL OF          5 INNER ITERATIONS.
    ------------------------------------------------

 NO OUTPUT CONTROL FOR STRESS PERIOD   37   TIME STEP   17
 
 SOLVING FOR HEAD 
                                                   Max.-Head-Change                         Max.-Flux-Residual
  Residual-Control   Outer-Iter.   Inner-Iter.     Column Row Layer    Maximum-Head-Change  Column Row Layer    Maximum-Flux-Residual          L2-NORM 
          0                 1           2             2    1     1       0.1666416552E-02       2    1    1         0.8664793826E-01      0.1316977768E+00
          0                 2           2             2    1     1      -0.1620970428E-03       2    1    1        -0.8664803975E-02      0.1316978735E-01
          0                 3           1             2    1     1       0.1103820590E-04       2    1    1         0.6065364537E-03      0.9218855599E-03

    ------------------------------------------------
       NWT REQUIRED            3 OUTER ITERATIONS 
       AND A TOTAL OF          5 INNER ITERATIONS.
    ------------------------------------------------

 NO OUTPUT CONTROL FOR STRESS PERIOD   37   TIME STEP   18
 
 SOLVING FOR HEAD 
                                                   Max.-Head-Change                         Max.-Flux-Residual
  Residual-Control   Outer-Iter.   Inner-Iter.     Column Row Layer    Maximum-Head-Change  Column Row Layer    Maximum-Flux-Residual          L2-NORM 
          0                 1           2             2    1     1       0.1661972665E-02       2    1    1         0.8641614830E-01      0.1307703433E+00
          0                 2           2             2    1     1      -0.1616647725E-03       2    1    1        -0.8641624912E-02      0.1307704684E-01
          0                 3           1             2    1     1       0.1100876967E-04       2    1    1         0.6049139034E-03      0.9153939744E-03

    ------------------------------------------------
       NWT REQUIRED            3 OUTER ITERATIONS 
       AND A TOTAL OF          5 INNER ITERATIONS.
    ------------------------------------------------

 NO OUTPUT CONTROL FOR STRESS PERIOD   37   TIME STEP   19
 
 SOLVING FOR HEAD 
                                                   Max.-Head-Change                         Max.-Flux-Residual
  Residual-Control   Outer-Iter.   Inner-Iter.     Column Row Layer    Maximum-Head-Change  Column Row Layer    Maximum-Flux-Residual          L2-NORM 
          0                 1           2             2    1     1       0.1657577035E-02       2    1    1         0.8618687854E-01      0.1298674597E+00
          0                 2           2             2    1     1      -0.1612371964E-03       2    1    1        -0.8618697855E-02      0.1298675578E-01
          0                 3           1             2    1     1       0.1097965341E-04       2    1    1         0.6033090079E-03      0.9090742364E-03

    ------------------------------------------------
       NWT REQUIRED            3 OUTER ITERATIONS 
       AND A TOTAL OF          5 INNER ITERATIONS.
    ------------------------------------------------

 NO OUTPUT CONTROL FOR STRESS PERIOD   37   TIME STEP   20
 
 SOLVING FOR HEAD 
                                                   Max.-Head-Change                         Max.-Flux-Residual
  Residual-Control   Outer-Iter.   Inner-Iter.     Column Row Layer    Maximum-Head-Change  Column Row Layer    Maximum-Flux-Residual          L2-NORM 
          0                 1           2             2    1     1       0.1653185452E-02       2    1    1         0.8595782772E-01      0.1289855581E+00
          0                 2           2             2    1     1      -0.1608100142E-03       2    1    1        -0.8595792710E-02      0.1289856559E-01
          0                 3           1             2    1     1       0.1095056366E-04       2    1    1         0.6017056470E-03      0.9029008189E-03

    ------------------------------------------------
       NWT REQUIRED            3 OUTER ITERATIONS 
       AND A TOTAL OF          5 INNER ITERATIONS.
    ------------------------------------------------

 NO OUTPUT CONTROL FOR STRESS PERIOD   37   TIME STEP   21
 
 SOLVING FOR HEAD 
                                                   Max.-Head-Change                         Max.-Flux-Residual
  Residual-Control   Outer-Iter.   Inner-Iter.     Column Row Layer    Maximum-Head-Change  Column Row Layer    Maximum-Flux-Residual          L2-NORM 
          0                 1           2             2    1     1       0.1648841641E-02       2    1    1         0.8573127000E-01      0.1281210399E+00
          0                 2           2             2    1     1      -0.1603874787E-03       2    1    1        -0.8573136855E-02      0.1281211349E-01
          0                 3           1             2    1     1       0.1092179105E-04       2    1    1         0.6001197440E-03      0.8968548618E-03

    ------------------------------------------------
       NWT REQUIRED            3 OUTER ITERATIONS 
       AND A TOTAL OF          5 INNER ITERATIONS.
    ------------------------------------------------

 NO OUTPUT CONTROL FOR STRESS PERIOD   37   TIME STEP   22
 
 SOLVING FOR HEAD 
                                                   Max.-Head-Change                         Max.-Flux-Residual
  Residual-Control   Outer-Iter.   Inner-Iter.     Column Row Layer    Maximum-Head-Change  Column Row Layer    Maximum-Flux-Residual          L2-NORM 
          0                 1           2             2    1     1       0.1644501365E-02       2    1    1         0.8550490582E-01      0.1272749220E+00
          0                 2           2             2    1     1      -0.1599652869E-03       2    1    1        -0.8550500353E-02      0.1272750175E-01
          0                 3           1             2    1     1       0.1089304141E-04       2    1    1         0.5985351938E-03      0.8909263627E-03

    ------------------------------------------------
       NWT REQUIRED            3 OUTER ITERATIONS 
       AND A TOTAL OF          5 INNER ITERATIONS.
    ------------------------------------------------

 NO OUTPUT CONTROL FOR STRESS PERIOD   37   TIME STEP   23
 
 SOLVING FOR HEAD 
                                                   Max.-Head-Change                         Max.-Flux-Residual
  Residual-Control   Outer-Iter.   Inner-Iter.     Column Row Layer    Maximum-Head-Change  Column Row Layer    Maximum-Flux-Residual          L2-NORM 
          0                 1           2             2    1     1       0.1640186464E-02       2    1    1         0.8527986662E-01      0.1264487196E+00
          0                 2           2             2    1     1      -0.1595455635E-03       2    1    1        -0.8527996356E-02      0.1264488165E-01
          0                 3           1             2    1     1       0.1086445956E-04       2    1    1         0.5969599110E-03      0.8851432469E-03

    ------------------------------------------------
       NWT REQUIRED            3 OUTER ITERATIONS 
       AND A TOTAL OF          5 INNER ITERATIONS.
    ------------------------------------------------

 NO OUTPUT CONTROL FOR STRESS PERIOD   37   TIME STEP   24
 
 SOLVING FOR HEAD 
                                                   Max.-Head-Change                         Max.-Flux-Residual
  Residual-Control   Outer-Iter.   Inner-Iter.     Column Row Layer    Maximum-Head-Change  Column Row Layer    Maximum-Flux-Residual          L2-NORM 
          0                 1           2             2    1     1       0.1635896620E-02       2    1    1         0.8505614311E-01      0.1256430848E+00
          0                 2           2             2    1     1      -0.1591282778E-03       2    1    1        -0.8505623946E-02      0.1256431853E-01
          0                 3           1             2    1     1       0.1083604433E-04       2    1    1         0.5953938410E-03      0.8795040844E-03

    ------------------------------------------------
       NWT REQUIRED            3 OUTER ITERATIONS 
       AND A TOTAL OF          5 INNER ITERATIONS.
    ------------------------------------------------

 NO OUTPUT CONTROL FOR STRESS PERIOD   37   TIME STEP   25
 
 SOLVING FOR HEAD 
                                                   Max.-Head-Change                         Max.-Flux-Residual
  Residual-Control   Outer-Iter.   Inner-Iter.     Column Row Layer    Maximum-Head-Change  Column Row Layer    Maximum-Flux-Residual          L2-NORM 
          0                 1           2             2    1     1       0.1631631590E-02       2    1    1         0.8483371877E-01      0.1248465550E+00
          0                 2           2             2    1     1      -0.1587134059E-03       2    1    1        -0.8483381463E-02      0.1248466513E-01
          0                 3           1             2    1     1       0.1080779288E-04       2    1    1         0.5938368604E-03      0.8739289428E-03

    ------------------------------------------------
       NWT REQUIRED            3 OUTER ITERATIONS 
       AND A TOTAL OF          5 INNER ITERATIONS.
    ------------------------------------------------

 NO OUTPUT CONTROL FOR STRESS PERIOD   37   TIME STEP   26
 
 SOLVING FOR HEAD 
                                                   Max.-Head-Change                         Max.-Flux-Residual
  Residual-Control   Outer-Iter.   Inner-Iter.     Column Row Layer    Maximum-Head-Change  Column Row Layer    Maximum-Flux-Residual          L2-NORM 
          0                 1           2             2    1     1       0.1627413203E-02       2    1    1         0.8461372293E-01      0.1240773643E+00
          0                 2           2             2    1     1      -0.1583030706E-03       2    1    1        -0.8461381798E-02      0.1240774526E-01
          0                 3           1             2    1     1       0.1077985028E-04       2    1    1         0.5922968812E-03      0.8685423789E-03

    ------------------------------------------------
       NWT REQUIRED            3 OUTER ITERATIONS 
       AND A TOTAL OF          5 INNER ITERATIONS.
    ------------------------------------------------

 NO OUTPUT CONTROL FOR STRESS PERIOD   37   TIME STEP   27
 
 SOLVING FOR HEAD 
                                                   Max.-Head-Change                         Max.-Flux-Residual
  Residual-Control   Outer-Iter.   Inner-Iter.     Column Row Layer    Maximum-Head-Change  Column Row Layer    Maximum-Flux-Residual          L2-NORM 
          0                 1           2             2    1     1       0.1623197128E-02       2    1    1         0.8439386162E-01      0.1233162827E+00
          0                 2           2             2    1     1      -0.1578929606E-03       2    1    1        -0.8439395602E-02      0.1233163754E-01
          0                 3           1             2    1     1       0.1075192355E-04       2    1    1         0.5907578548E-03      0.8632155940E-03

    ------------------------------------------------
       NWT REQUIRED            3 OUTER ITERATIONS 
       AND A TOTAL OF          5 INNER ITERATIONS.
    ------------------------------------------------

 NO OUTPUT CONTROL FOR STRESS PERIOD   37   TIME STEP   28
 
 SOLVING FOR HEAD 
                                                   Max.-Head-Change                         Max.-Flux-Residual
  Residual-Control   Outer-Iter.   Inner-Iter.     Column Row Layer    Maximum-Head-Change  Column Row Layer    Maximum-Flux-Residual          L2-NORM 
          0                 1           2             2    1     1       0.1619005255E-02       2    1    1         0.8417526210E-01      0.1225789635E+00
          0                 2           2             2    1     1      -0.1574852046E-03       2    1    1        -0.8417535579E-02      0.1225790542E-01
          0                 3           1             2    1     1       0.1072415728E-04       2    1    1         0.5892276607E-03      0.8580535285E-03

    ------------------------------------------------
       NWT REQUIRED            3 OUTER ITERATIONS 
       AND A TOTAL OF          5 INNER ITERATIONS.
    ------------------------------------------------

 NO OUTPUT CONTROL FOR STRESS PERIOD   37   TIME STEP   29
 
 SOLVING FOR HEAD 
                                                   Max.-Head-Change                         Max.-Flux-Residual
  Residual-Control   Outer-Iter.   Inner-Iter.     Column Row Layer    Maximum-Head-Change  Column Row Layer    Maximum-Flux-Residual          L2-NORM 
          0                 1           2             2    1     1       0.1614837355E-02       2    1    1         0.8395791750E-01      0.1218499582E+00
          0                 2           2             2    1     1      -0.1570797801E-03       2    1    1        -0.8395801041E-02      0.1218500508E-01
          0                 3           1             2    1     1       0.1069654887E-04       2    1    1         0.5877062276E-03      0.8529507173E-03

    ------------------------------------------------
       NWT REQUIRED            3 OUTER ITERATIONS 
       AND A TOTAL OF          5 INNER ITERATIONS.
    ------------------------------------------------

 NO OUTPUT CONTROL FOR STRESS PERIOD   37   TIME STEP   30



 STREAM LISTING     PERIOD     37   STEP       30

 LAYER ROW COL. STREAM  RCH.  FLOW INTO     FLOW TO   FLOW OUT OF   OVRLND.     DIRECT     STREAM       STREAM     STREAM     STREAM   STREAMBED  STREAMBED
                SEG.NO.  NO.  STRM. RCH.    AQUIFER    STRM. RCH.    RUNOFF     PRECIP       ET          HEAD       DEPTH      WIDTH   CONDCTNC.   GRADIENT

   1    1    1     1     1    1.7249E+01  2.0269E-01   1.7047E+01  0.000E+00  0.000E+00  0.000E+00  1.09410E+03  1.052E+00  1.112E+01  5.002E-02  1.351E+00
   1    2    2     1     2    1.7047E+01  3.1257E-01   1.6734E+01  0.000E+00  0.000E+00  0.000E+00  1.08911E+03  1.047E+00  1.103E+01  7.723E-02  1.349E+00
   1    3    3     1     3    1.6734E+01  2.6529E-01   1.6469E+01  0.000E+00  0.000E+00  0.000E+00  1.08346E+03  1.042E+00  1.094E+01  6.563E-02  1.347E+00
   1    3    4     1     4    1.6469E+01  2.4324E-01   1.6226E+01  0.000E+00  0.000E+00  0.000E+00  1.07845E+03  1.038E+00  1.085E+01  6.024E-02  1.346E+00
   1    4    5     2     1    1.4226E+01  3.0073E-01   1.3925E+01  0.000E+00  0.000E+00  0.000E+00  1.07279E+03  8.555E-01  1.200E+01  7.800E-02  1.285E+00
   1    5    6     2     2    1.3925E+01  2.3075E-01   1.3694E+01  0.000E+00  0.000E+00  0.000E+00  1.06736E+03  8.458E-01  1.200E+01  6.000E-02  1.282E+00
   1    6    6     2     3    1.3694E+01  2.3024E-01   1.3464E+01  0.000E+00  0.000E+00  0.000E+00  1.06263E+03  8.373E-01  1.200E+01  6.000E-02  1.279E+00
   1    7    6     2     4    1.3464E+01  2.2972E-01   1.3234E+01  0.000E+00  0.000E+00  0.000E+00  1.05790E+03  8.287E-01  1.200E+01  6.000E-02  1.276E+00
   1    8    6     2     5    1.3234E+01  2.2921E-01   1.3005E+01  0.000E+00  0.000E+00  0.000E+00  1.05318E+03  8.202E-01  1.200E+01  6.000E-02  1.273E+00
   1    3    5     3     1    2.0000E+00  2.8252E-01   1.7175E+00  0.000E+00  0.000E+00  0.000E+00  1.07555E+03  1.909E+00  9.636E+00  7.227E-02  1.955E+00
   1    3    6     3     2    1.7175E+00  2.4905E-01   1.4684E+00  0.000E+00  0.000E+00  0.000E+00  1.07264E+03  1.727E+00  8.909E+00  6.682E-02  1.864E+00
   1    3    7     3     3    1.4684E+00  1.9718E-01   1.2712E+00  0.000E+00  0.000E+00  0.000E+00  1.06987E+03  1.555E+00  8.218E+00  5.547E-02  1.777E+00
   1    4    8     3     4    1.2712E+00  2.2567E-01   1.0456E+00  0.000E+00  0.000E+00  0.000E+00  1.06682E+03  1.364E+00  7.455E+00  6.709E-02  1.682E+00
   1    5    8     3     5    1.0456E+00  1.5790E-01   8.8768E-01  0.000E+00  0.000E+00  0.000E+00  1.06362E+03  1.164E+00  6.655E+00  4.991E-02  1.582E+00
   1    6    8     3     6    8.8768E-01  5.5980E-02   8.3170E-01  0.000E+00  0.000E+00  0.000E+00  1.06158E+03  1.036E+00  6.145E+00  1.844E-02  1.518E+00
   1    5   10     4     1    1.0000E+01  9.0919E-02   9.9091E+00  0.000E+00  0.000E+00  0.000E+00  1.07836E+03  6.368E-01  1.000E+01  2.500E-02  1.212E+00
   1    5    9     4     2    9.9091E+00  1.8158E-01   9.7275E+00  0.000E+00  0.000E+00  0.000E+00  1.07154E+03  6.315E-01  1.000E+01  5.000E-02  1.211E+00
   1    6    8     4     3    9.7275E+00  1.2689E-01   9.6006E+00  0.000E+00  0.000E+00  0.000E+00  1.06381E+03  6.256E-01  1.000E+01  3.500E-02  1.209E+00
   1    6    8     5     1    1.0432E+01  2.2686E-01   1.0205E+01  0.000E+00  0.000E+00  0.000E+00  1.05868E+03  6.790E-01  1.542E+01  6.166E-02  1.226E+00
   1    7    7     5     2    1.0205E+01  2.7894E-01   9.9265E+00  0.000E+00  0.000E+00  0.000E+00  1.05417E+03  6.732E-01  1.519E+01  7.594E-02  1.224E+00
   1    8    7     5     3    9.9265E+00  1.9221E-01   9.7343E+00  0.000E+00  0.000E+00  0.000E+00  1.04992E+03  6.676E-01  1.497E+01  5.241E-02  1.223E+00
   1    8    6     5     4    9.7343E+00  1.3577E-01   9.5985E+00  0.000E+00  0.000E+00  0.000E+00  1.04691E+03  6.637E-01  1.482E+01  3.706E-02  1.221E+00
   1    9    6     6     1    9.5985E+00  2.2097E-01   9.3776E+00  0.000E+00  0.000E+00  0.000E+00  1.04341E+03  6.828E-01  1.200E+01  6.000E-02  1.228E+00
   1   10    7     6     2    9.3776E+00  2.2039E-01   9.1572E+00  0.000E+00  0.000E+00  0.000E+00  1.03885E+03  6.732E-01  1.200E+01  6.000E-02  1.224E+00
   1   11    7     6     3    9.1572E+00  2.1981E-01   8.9374E+00  0.000E+00  0.000E+00  0.000E+00  1.03430E+03  6.636E-01  1.200E+01  6.000E-02  1.221E+00
   1   12    7     6     4    8.9374E+00  2.1923E-01   8.7181E+00  0.000E+00  0.000E+00  0.000E+00  1.02974E+03  6.539E-01  1.200E+01  6.000E-02  1.218E+00
   1   13    7     6     5    8.7181E+00 -1.1031E-01   8.8284E+00  0.000E+00  0.000E+00  0.000E+00  1.02656E+03  6.514E-01  1.200E+01  2.400E-01 -1.532E-01
   1   14    9     7     1    1.5000E+02  1.3453E+00   1.4865E+02  0.000E+00  0.000E+00  0.000E+00  1.03987E+03  2.288E+00  5.529E+01  5.593E-01  8.017E-01
   1   13    8     7     2    1.4865E+02  1.8504E+00   1.4680E+02  0.000E+00  0.000E+00  0.000E+00  1.03478E+03  2.279E+00  5.526E+01  6.148E-01  1.003E+00
   1   13    7     7     3    1.4680E+02  1.4908E+00   1.4531E+02  0.000E+00  0.000E+00  0.000E+00  1.02969E+03  2.270E+00  5.522E+01  5.584E-01  8.898E-01
   1   13    6     8     1    1.5414E+02  8.4288E-01   1.5330E+02  0.000E+00  0.000E+00  0.000E+00  1.02472E+03  2.843E+00  4.122E+01  4.201E-01  6.689E-01
   1   13    5     8     2    1.5330E+02  1.1254E-01   1.5319E+02  0.000E+00  0.000E+00  0.000E+00  1.01846E+03  2.840E+00  4.117E+01  4.196E-01  8.941E-02
   1   13    4     8     3    1.5319E+02 -2.6388E+00   1.5583E+02  0.000E+00  0.000E+00  0.000E+00  1.01222E+03  2.848E+00  4.130E+01  4.209E+00 -2.090E-01
   1   13    3     8     4    1.5583E+02 -3.7263E+00   1.5955E+02  0.000E+00  0.000E+00  0.000E+00  1.00600E+03  2.870E+00  4.162E+01  4.241E+00 -2.929E-01
   1   13    2     8     5    1.5955E+02 -2.5925E+00   1.6214E+02  0.000E+00  0.000E+00  0.000E+00  9.99767E+02  2.892E+00  4.193E+01  4.273E+00 -2.023E-01
   1   13    1     8     6    1.6214E+02 -1.9792E+00   1.6412E+02  0.000E+00  0.000E+00  0.000E+00  9.94782E+02  2.907E+00  4.215E+01  2.577E+00 -2.560E-01
   1    8    6     9     1    1.3005E+01  0.0000E+00   1.3005E+01  0.000E+00  0.000E+00  0.000E+00  1.08140E+03  2.653E+00  4.000E+00  0.000E+00  1.884E+00
   1    8    5     9     2    1.3005E+01  0.0000E+00   1.3005E+01  0.000E+00  0.000E+00  0.000E+00  1.08090E+03  2.653E+00  4.000E+00  0.000E+00  1.884E+00





UNSATURATED ZONE PACKAGE VOLUMETRIC BUDGET FOR  TIME STEP    30 STRESS PERIOD   37
  ------------------------------------------------------------------------------



     CUMULATIVE VOLUMES      L**3       RATES FOR THIS TIME STEP      L**3/T
     ------------------                 ------------------------

           IN:                                      IN:
           ---                                      ---
        INFILTRATION =    80314519.4187          INFILTRATION =           0.8475

          OUT:                                     OUT:
          ----                                     ----
              UZF ET =    78995300.0659                UZF ET =           0.7500
        UZF RECHARGE =       73224.0000          UZF RECHARGE =       0.0000E+00

            IN - OUT =     1245995.3528              IN - OUT =       9.7500E-02

          STORAGE:                                 STORAGE:
          --------                                 --------
      STORAGE CHANGE =     1245995.6593        STORAGE CHANGE =       9.7500E-02

 PERCENT DISCREPANCY IS DIFFERENCE BETWEEN IN-OUT MINUS CHANGE IN STORAGE
 DIVIDED BY THE AVERAGE OF IN AND OUT TIMES 100

 PERCENT DISCREPANCY =           0.00     PERCENT DISCREPANCY =           0.00






1
  VOLUMETRIC BUDGET FOR ENTIRE MODEL AT END OF TIME STEP   30, STRESS PERIOD  37
  ------------------------------------------------------------------------------

     CUMULATIVE VOLUMES      L**3       RATES FOR THIS TIME STEP      L**3/T
     ------------------                 ------------------------

           IN:                                      IN:
           ---                                      ---
             STORAGE     =    29422404.0000               STORAGE     =           0.2205
       CONSTANT HEAD     =           0.0000         CONSTANT HEAD     =           0.0000
     HEAD DEP BOUNDS     =    27116658.0000       HEAD DEP BOUNDS     =           0.2864
      STREAM LEAKAGE     =  1110944384.0000        STREAM LEAKAGE     =          11.1682
        UZF RECHARGE     =       73223.9531          UZF RECHARGE     =           0.0000
               GW ET     =           0.0000                 GW ET     =           0.0000
     SURFACE LEAKAGE     =           0.0000       SURFACE LEAKAGE     =           0.0000

                TOTAL IN =  1167556608.0000                  TOTAL IN =          11.6750

          OUT:                                     OUT:
          ----                                     ----
             STORAGE     =    91170176.0000               STORAGE     =           0.3410
       CONSTANT HEAD     =           0.0000         CONSTANT HEAD     =           0.0000
     HEAD DEP BOUNDS     =    27190396.0000       HEAD DEP BOUNDS     =           0.2869
      STREAM LEAKAGE     =  1049211776.0000        STREAM LEAKAGE     =          11.0471
        UZF RECHARGE     =           0.0000          UZF RECHARGE     =           0.0000
               GW ET     =           0.0000                 GW ET     =           0.0000
     SURFACE LEAKAGE     =           0.0000       SURFACE LEAKAGE     =           0.0000

               TOTAL OUT =  1167572352.0000                 TOTAL OUT =          11.6751

                IN - OUT =      -15744.0000                  IN - OUT =      -3.1471E-05

     PERCENT DISCREPANCY =          -0.00         PERCENT DISCREPANCY =          -0.00






         TIME SUMMARY AT END OF TIME STEP   30 IN STRESS PERIOD   37
                    SECONDS     MINUTES      HOURS       DAYS        YEARS
                    -----------------------------------------------------------
   TIME STEP LENGTH  87667.      1461.1      24.352      1.0147     2.77799E-03
 STRESS PERIOD TIME 2.63000E+06  43833.      730.56      30.440     8.33397E-02
         TOTAL TIME 9.47660E+07 1.57943E+06  26324.      1096.8      3.0030    
1
1
                            STRESS PERIOD NO.   38, LENGTH =   2630000.    
                            -----------------------------------------------

                              NUMBER OF TIME STEPS =    30

                               MULTIPLIER FOR DELT =     1.000

                            INITIAL TIME STEP SIZE =   87666.66    

 REUSING NON-PARAMETER GHB CELLS FROM LAST STRESS PERIOD

      2 GHB CELLS

 REUSING STREAM SEGMENT DATA FROM LAST STRESS PERIOD



            AREAL INFILTRATION RATE
 READING ON UNIT   19 WITH FORMAT: (FREE)              

            1           2           3           4           5           6           7           8           9          10
 ........................................................................................................................
   1   1.0000E-10  2.0000E-10   0.000       0.000       0.000       0.000       0.000       0.000       0.000       0.000    
   2   2.0000E-10  1.0000E-10  2.0000E-10   0.000       0.000      8.0000E-10  8.0000E-10  5.0000E-10   0.000       0.000    
   3    0.000      5.0000E-10  1.0000E-10  1.0000E-10  8.0000E-10  8.0000E-10  5.0000E-10  5.0000E-10   0.000       0.000    
   4   8.0000E-10  5.0000E-10  1.0000E-10  1.0000E-10  1.0000E-10  1.0000E-10  1.0000E-10  1.0000E-10  2.0000E-10   0.000    
   5   8.0000E-10  5.0000E-10  1.0000E-10  1.0000E-10  1.0000E-10  1.0000E-10  1.0000E-10  1.0000E-10  1.0000E-10  1.0000E-10
   6   8.0000E-10  5.0000E-10  5.0000E-10  2.0000E-10  2.0000E-10  1.0000E-10  1.0000E-10  1.0000E-10  1.0000E-10  5.0000E-10
   7   8.0000E-10  5.0000E-10  5.0000E-10  2.0000E-10  2.0000E-10  1.0000E-10  1.0000E-10  2.0000E-10  2.0000E-10   0.000    
   8    0.000      5.0000E-10  5.0000E-10  2.0000E-10  2.0000E-10  1.0000E-10  1.0000E-10  2.0000E-10  5.0000E-10   0.000    
   9    0.000      5.0000E-10  5.0000E-10  2.0000E-10  2.0000E-10  1.0000E-10  1.0000E-10  2.0000E-10  5.0000E-10   0.000    
  10    0.000      5.0000E-10  5.0000E-10  2.0000E-10  2.0000E-10  1.0000E-10  1.0000E-10  2.0000E-10  5.0000E-10  8.0000E-10
  11    0.000      1.0000E-10  1.0000E-10  1.0000E-10  1.0000E-10  1.0000E-10  1.0000E-10  2.0000E-10  5.0000E-10   0.000    
  12   1.0000E-10  1.0000E-10  1.0000E-10  1.0000E-10  1.0000E-10  1.0000E-10  1.0000E-10  1.0000E-10  2.0000E-10   0.000    
  13   1.0000E-10  1.0000E-10  2.0000E-10  2.0000E-10  2.0000E-10  2.0000E-10  2.0000E-10  1.0000E-10  1.0000E-10   0.000    
  14    0.000      2.0000E-10  5.0000E-10  5.0000E-10  5.0000E-10  5.0000E-10  5.0000E-10  2.0000E-10  1.0000E-10   0.000    
  15    0.000       0.000      8.0000E-10  8.0000E-10  8.0000E-10  8.0000E-10   0.000       0.000       0.000       0.000    

                  ET RATE =  5.000000E-10

 USING ET EXTINCTION DEPTH FROM PREVIOUS STRESS PERIOD. CURRENT PERIOD IS:      38

 USING EXTINCTION WATER CONTENT FROM PREVIOUS STRESS PERIOD. CURRENT PERIOD IS:      38

 USING AIR ENTRY PRESSURE FROM PREVIOUS STRESS PERIOD. CURRENT PERIOD IS:      38

 USING ROOT PRESSURE HEAD FROM PREVIOUS STRESS PERIOD. CURRENT PERIOD IS:      38

 USING ROOT ACTIVITY FROM PREVIOUS STRESS PERIOD. CURRENT PERIOD IS:      38
 
 SOLVING FOR HEAD 
                                                   Max.-Head-Change                         Max.-Flux-Residual
  Residual-Control   Outer-Iter.   Inner-Iter.     Column Row Layer    Maximum-Head-Change  Column Row Layer    Maximum-Flux-Residual          L2-NORM 
          0                 1           2             2    1     1       0.1610693168E-02       2    1    1         0.8374181581E-01      0.1211363962E+00
          0                 2           2             2    1     1      -0.1566766629E-03       2    1    1        -0.8374190801E-02      0.1211364851E-01
          0                 3           1             2    1     1       0.1066909855E-04       2    1    1         0.5861935310E-03      0.8479560594E-03

    ------------------------------------------------
       NWT REQUIRED            3 OUTER ITERATIONS 
       AND A TOTAL OF          5 INNER ITERATIONS.
    ------------------------------------------------

 NO OUTPUT CONTROL FOR STRESS PERIOD   38   TIME STEP    1
 
 SOLVING FOR HEAD 
                                                   Max.-Head-Change                         Max.-Flux-Residual
  Residual-Control   Outer-Iter.   Inner-Iter.     Column Row Layer    Maximum-Head-Change  Column Row Layer    Maximum-Flux-Residual          L2-NORM 
          0                 1           2             2    1     1       0.1606003200E-02       2    1    1         0.8352694363E-01      0.1330651699E+00
          0                 2           2             2    1     1      -0.1562204643E-03       2    1    1        -0.8352704083E-02      0.1330675453E-01
          0                 3           1             2    1     1       0.1063803235E-04       2    1    1         0.5846894285E-03      0.9348541385E-03

    ------------------------------------------------
       NWT REQUIRED            3 OUTER ITERATIONS 
       AND A TOTAL OF          5 INNER ITERATIONS.
    ------------------------------------------------

 NO OUTPUT CONTROL FOR STRESS PERIOD   38   TIME STEP    2
 
 SOLVING FOR HEAD 
                                                   Max.-Head-Change                         Max.-Flux-Residual
  Residual-Control   Outer-Iter.   Inner-Iter.     Column Row Layer    Maximum-Head-Change  Column Row Layer    Maximum-Flux-Residual          L2-NORM 
          0                 1           2             2    1     1       0.1600676556E-02       2    1    1         0.8328376422E-01      0.1510983055E+00
          0                 2           2             2    1     1      -0.1557023326E-03       2    1    1        -0.8328386490E-02      0.1510983842E-01
          0                 3           1             2    1     1       0.1060274957E-04       2    1    1         0.5829872120E-03      0.1057691110E-02

    ------------------------------------------------
       NWT REQUIRED            3 OUTER ITERATIONS 
       AND A TOTAL OF          5 INNER ITERATIONS.
    ------------------------------------------------

 NO OUTPUT CONTROL FOR STRESS PERIOD   38   TIME STEP    3
 
 SOLVING FOR HEAD 
                                                   Max.-Head-Change                         Max.-Flux-Residual
  Residual-Control   Outer-Iter.   Inner-Iter.     Column Row Layer    Maximum-Head-Change  Column Row Layer    Maximum-Flux-Residual          L2-NORM 
          0                 1           2             2    1     1       0.1595382241E-02       2    1    1         0.8300757230E-01      0.1497578828E+00
          0                 2           2             2    1     1      -0.1551873394E-03       2    1    1        -0.8300767236E-02      0.1497579698E-01
          0                 3           1             2    1     1       0.1056768027E-04       2    1    1         0.5810538613E-03      0.1048306675E-02

    ------------------------------------------------
       NWT REQUIRED            3 OUTER ITERATIONS 
       AND A TOTAL OF          5 INNER ITERATIONS.
    ------------------------------------------------

 NO OUTPUT CONTROL FOR STRESS PERIOD   38   TIME STEP    4
 
 SOLVING FOR HEAD 
                                                   Max.-Head-Change                         Max.-Flux-Residual
  Residual-Control   Outer-Iter.   Inner-Iter.     Column Row Layer    Maximum-Head-Change  Column Row Layer    Maximum-Flux-Residual          L2-NORM 
          0                 1           2             2    1     1       0.1590120028E-02       2    1    1         0.8273306693E-01      0.1484599071E+00
          0                 2           2             2    1     1      -0.1546754680E-03       2    1    1        -0.8273316615E-02      0.1484599883E-01
          0                 3           1             2    1     1       0.1053282350E-04       2    1    1         0.5791323058E-03      0.1039220229E-02

    ------------------------------------------------
       NWT REQUIRED            3 OUTER ITERATIONS 
       AND A TOTAL OF          5 INNER ITERATIONS.
    ------------------------------------------------

 NO OUTPUT CONTROL FOR STRESS PERIOD   38   TIME STEP    5
 
 SOLVING FOR HEAD 
                                                   Max.-Head-Change                         Max.-Flux-Residual
  Residual-Control   Outer-Iter.   Inner-Iter.     Column Row Layer    Maximum-Head-Change  Column Row Layer    Maximum-Flux-Residual          L2-NORM 
          0                 1           2             2    1     1       0.1584889697E-02       2    1    1         0.8246022601E-01      0.1471865012E+00
          0                 2           2             2    1     1      -0.1541666986E-03       2    1    1        -0.8246032428E-02      0.1471872563E-01
          0                 3           1             2    1     1       0.1049817903E-04       2    1    1         0.5772224518E-03      0.1030311304E-02

    ------------------------------------------------
       NWT REQUIRED            3 OUTER ITERATIONS 
       AND A TOTAL OF          5 INNER ITERATIONS.
    ------------------------------------------------

 NO OUTPUT CONTROL FOR STRESS PERIOD   38   TIME STEP    6
 
 SOLVING FOR HEAD 
                                                   Max.-Head-Change                         Max.-Flux-Residual
  Residual-Control   Outer-Iter.   Inner-Iter.     Column Row Layer    Maximum-Head-Change  Column Row Layer    Maximum-Flux-Residual          L2-NORM 
          0                 1           2             2    1     1       0.1579668956E-02       2    1    1         0.8218789577E-01      0.1459530568E+00
          0                 2           2             2    1     1      -0.1536588610E-03       2    1    1        -0.8218799312E-02      0.1459531373E-01
          0                 3           1             2    1     1       0.1046359657E-04       2    1    1         0.5753161000E-03      0.1021672332E-02

    ------------------------------------------------
       NWT REQUIRED            3 OUTER ITERATIONS 
       AND A TOTAL OF          5 INNER ITERATIONS.
    ------------------------------------------------

 NO OUTPUT CONTROL FOR STRESS PERIOD   38   TIME STEP    7
 
 SOLVING FOR HEAD 
                                                   Max.-Head-Change                         Max.-Flux-Residual
  Residual-Control   Outer-Iter.   Inner-Iter.     Column Row Layer    Maximum-Head-Change  Column Row Layer    Maximum-Flux-Residual          L2-NORM 
          0                 1           2             2    1     1       0.1574501405E-02       2    1    1         0.8191834761E-01      0.1447396717E+00
          0                 2           2             2    1     1      -0.1531561984E-03       2    1    1        -0.8191844418E-02      0.1447400104E-01
          0                 3           1             2    1     1       0.1042936746E-04       2    1    1         0.5734292880E-03      0.1013181525E-02

    ------------------------------------------------
       NWT REQUIRED            3 OUTER ITERATIONS 
       AND A TOTAL OF          5 INNER ITERATIONS.
    ------------------------------------------------

 NO OUTPUT CONTROL FOR STRESS PERIOD   38   TIME STEP    8
 
 SOLVING FOR HEAD 
                                                   Max.-Head-Change                         Max.-Flux-Residual
  Residual-Control   Outer-Iter.   Inner-Iter.     Column Row Layer    Maximum-Head-Change  Column Row Layer    Maximum-Flux-Residual          L2-NORM 
          0                 1           2             2    1     1       0.1569364802E-02       2    1    1         0.8165041481E-01      0.1435539807E+00
          0                 2           2             2    1     1      -0.1526565450E-03       2    1    1        -0.8165051051E-02      0.1435540626E-01
          0                 3           1             2    1     1       0.1039534237E-04       2    1    1         0.5715537097E-03      0.1004952860E-02

    ------------------------------------------------
       NWT REQUIRED            3 OUTER ITERATIONS 
       AND A TOTAL OF          5 INNER ITERATIONS.
    ------------------------------------------------

 NO OUTPUT CONTROL FOR STRESS PERIOD   38   TIME STEP    9
 
 SOLVING FOR HEAD 
                                                   Max.-Head-Change                         Max.-Flux-Residual
  Residual-Control   Outer-Iter.   Inner-Iter.     Column Row Layer    Maximum-Head-Change  Column Row Layer    Maximum-Flux-Residual          L2-NORM 
          0                 1           2             2    1     1       0.1564258847E-02       2    1    1         0.8138408671E-01      0.1424063273E+00
          0                 2           2             2    1     1      -0.1521598739E-03       2    1    1        -0.8138418165E-02      0.1424064072E-01
          0                 3           1             2    1     1       0.1036152105E-04       2    1    1         0.5696894305E-03      0.9968460464E-03

    ------------------------------------------------
       NWT REQUIRED            3 OUTER ITERATIONS 
       AND A TOTAL OF          5 INNER ITERATIONS.
    ------------------------------------------------

 NO OUTPUT CONTROL FOR STRESS PERIOD   38   TIME STEP   10
 
 SOLVING FOR HEAD 
                                                   Max.-Head-Change                         Max.-Flux-Residual
  Residual-Control   Outer-Iter.   Inner-Iter.     Column Row Layer    Maximum-Head-Change  Column Row Layer    Maximum-Flux-Residual          L2-NORM 
          0                 1           2             2    1     1       0.1559161257E-02       2    1    1         0.8111820497E-01      0.1412781256E+00
          0                 2           2             2    1     1      -0.1516640164E-03       2    1    1        -0.8111829919E-02      0.1412782024E-01
          0                 3           1             2    1     1       0.1032775511E-04       2    1    1         0.5678282521E-03      0.9889477027E-03

    ------------------------------------------------
       NWT REQUIRED            3 OUTER ITERATIONS 
       AND A TOTAL OF          5 INNER ITERATIONS.
    ------------------------------------------------

 NO OUTPUT CONTROL FOR STRESS PERIOD   38   TIME STEP   11
 
 SOLVING FOR HEAD 
                                                   Max.-Head-Change                         Max.-Flux-Residual
  Residual-Control   Outer-Iter.   Inner-Iter.     Column Row Layer    Maximum-Head-Change  Column Row Layer    Maximum-Flux-Residual          L2-NORM 
          0                 1           2             2    1     1       0.1554115857E-02       2    1    1         0.8085504224E-01      0.1401764444E+00
          0                 2           2             2    1     1      -0.1511732353E-03       2    1    1        -0.8085513549E-02      0.1401765248E-01
          0                 3           1             2    1     1       0.1029433518E-04       2    1    1         0.5659861184E-03      0.9812358874E-03

    ------------------------------------------------
       NWT REQUIRED            3 OUTER ITERATIONS 
       AND A TOTAL OF          5 INNER ITERATIONS.
    ------------------------------------------------

 NO OUTPUT CONTROL FOR STRESS PERIOD   38   TIME STEP   12
 
 SOLVING FOR HEAD 
                                                   Max.-Head-Change                         Max.-Flux-Residual
  Residual-Control   Outer-Iter.   Inner-Iter.     Column Row Layer    Maximum-Head-Change  Column Row Layer    Maximum-Flux-Residual          L2-NORM 
          0                 1           2             2    1     1       0.1549078234E-02       2    1    1         0.8059230019E-01      0.1391027876E+00
          0                 2           2             2    1     1      -0.1506832102E-03       2    1    1        -0.8059239253E-02      0.1391028667E-01
          0                 3           1             2    1     1       0.1026096591E-04       2    1    1         0.5641469021E-03      0.9737201949E-03

    ------------------------------------------------
       NWT REQUIRED            3 OUTER ITERATIONS 
       AND A TOTAL OF          5 INNER ITERATIONS.
    ------------------------------------------------

 NO OUTPUT CONTROL FOR STRESS PERIOD   38   TIME STEP   13
 
 SOLVING FOR HEAD 
                                                   Max.-Head-Change                         Max.-Flux-Residual
  Residual-Control   Outer-Iter.   Inner-Iter.     Column Row Layer    Maximum-Head-Change  Column Row Layer    Maximum-Flux-Residual          L2-NORM 
          0                 1           2             2    1     1       0.1544092124E-02       2    1    1         0.8033224681E-01      0.1380462458E+00
          0                 2           2             2    1     1      -0.1501981970E-03       2    1    1        -0.8033233864E-02      0.1380463307E-01
          0                 3           1             2    1     1       0.1022793839E-04       2    1    1         0.5623265227E-03      0.9663251220E-03

    ------------------------------------------------
       NWT REQUIRED            3 OUTER ITERATIONS 
       AND A TOTAL OF          5 INNER ITERATIONS.
    ------------------------------------------------

 NO OUTPUT CONTROL FOR STRESS PERIOD   38   TIME STEP   14
 
 SOLVING FOR HEAD 
                                                   Max.-Head-Change                         Max.-Flux-Residual
  Residual-Control   Outer-Iter.   Inner-Iter.     Column Row Layer    Maximum-Head-Change  Column Row Layer    Maximum-Flux-Residual          L2-NORM 
          0                 1           2             2    1     1       0.1539113319E-02       2    1    1         0.8007257874E-01      0.1370207727E+00
          0                 2           2             2    1     1      -0.1497138938E-03       2    1    1        -0.8007266973E-02      0.1370208546E-01
          0                 3           1             2    1     1       0.1019495915E-04       2    1    1         0.5605088437E-03      0.9591463229E-03

    ------------------------------------------------
       NWT REQUIRED            3 OUTER ITERATIONS 
       AND A TOTAL OF          5 INNER ITERATIONS.
    ------------------------------------------------

 NO OUTPUT CONTROL FOR STRESS PERIOD   38   TIME STEP   15
 
 SOLVING FOR HEAD 
                                                   Max.-Head-Change                         Max.-Flux-Residual
  Residual-Control   Outer-Iter.   Inner-Iter.     Column Row Layer    Maximum-Head-Change  Column Row Layer    Maximum-Flux-Residual          L2-NORM 
          0                 1           2             2    1     1       0.1534185495E-02       2    1    1         0.7981557513E-01      0.1360135359E+00
          0                 2           2             2    1     1      -0.1492345501E-03       2    1    1        -0.7981566554E-02      0.1360136153E-01
          0                 3           1             2    1     1       0.1016231765E-04       2    1    1         0.5587098145E-03      0.9520960357E-03

    ------------------------------------------------
       NWT REQUIRED            3 OUTER ITERATIONS 
       AND A TOTAL OF          5 INNER ITERATIONS.
    ------------------------------------------------

 NO OUTPUT CONTROL FOR STRESS PERIOD   38   TIME STEP   16
 
 SOLVING FOR HEAD 
                                                   Max.-Head-Change                         Max.-Flux-Residual
  Residual-Control   Outer-Iter.   Inner-Iter.     Column Row Layer    Maximum-Head-Change  Column Row Layer    Maximum-Flux-Residual          L2-NORM 
          0                 1           2             2    1     1       0.1529264417E-02       2    1    1         0.7955892903E-01      0.1350254997E+00
          0                 2           2             2    1     1      -0.1487558617E-03       2    1    1        -0.7955901840E-02      0.1350255803E-01
          0                 3           1             2    1     1       0.1012972088E-04       2    1    1         0.5569132927E-03      0.9451945612E-03

    ------------------------------------------------
       NWT REQUIRED            3 OUTER ITERATIONS 
       AND A TOTAL OF          5 INNER ITERATIONS.
    ------------------------------------------------

 NO OUTPUT CONTROL FOR STRESS PERIOD   38   TIME STEP   17
 
 SOLVING FOR HEAD 
                                                   Max.-Head-Change                         Max.-Flux-Residual
  Residual-Control   Outer-Iter.   Inner-Iter.     Column Row Layer    Maximum-Head-Change  Column Row Layer    Maximum-Flux-Residual          L2-NORM 
          0                 1           2             2    1     1       0.1524393745E-02       2    1    1         0.7930491864E-01      0.1340638934E+00
          0                 2           2             2    1     1      -0.1482820774E-03       2    1    1        -0.7930500745E-02      0.1340639773E-01
          0                 3           1             2    1     1       0.1009745805E-04       2    1    1         0.5551352145E-03      0.9384485978E-03

    ------------------------------------------------
       NWT REQUIRED            3 OUTER ITERATIONS 
       AND A TOTAL OF          5 INNER ITERATIONS.
    ------------------------------------------------

 NO OUTPUT CONTROL FOR STRESS PERIOD   38   TIME STEP   18
 
 SOLVING FOR HEAD 
                                                   Max.-Head-Change                         Max.-Flux-Residual
  Residual-Control   Outer-Iter.   Inner-Iter.     Column Row Layer    Maximum-Head-Change  Column Row Layer    Maximum-Flux-Residual          L2-NORM 
          0                 1           2             2    1     1       0.1519529275E-02       2    1    1         0.7905123569E-01      0.1331140631E+00
          0                 2           2             2    1     1      -0.1478088955E-03       2    1    1        -0.7905132362E-02      0.1331141599E-01
          0                 3           1             2    1     1       0.1006523569E-04       2    1    1         0.5533594124E-03      0.9318087808E-03

    ------------------------------------------------
       NWT REQUIRED            3 OUTER ITERATIONS 
       AND A TOTAL OF          5 INNER ITERATIONS.
    ------------------------------------------------

 NO OUTPUT CONTROL FOR STRESS PERIOD   38   TIME STEP   19
 
 SOLVING FOR HEAD 
                                                   Max.-Head-Change                         Max.-Flux-Residual
  Residual-Control   Outer-Iter.   Inner-Iter.     Column Row Layer    Maximum-Head-Change  Column Row Layer    Maximum-Flux-Residual          L2-NORM 
          0                 1           2             2    1     1       0.1514692788E-02       2    1    1         0.7879901737E-01      0.1321940779E+00
          0                 2           2             2    1     1      -0.1473384362E-03       2    1    1        -0.7879910455E-02      0.1321941744E-01
          0                 3           1             2    1     1       0.1003319913E-04       2    1    1         0.5515938856E-03      0.9253668271E-03

    ------------------------------------------------
       NWT REQUIRED            3 OUTER ITERATIONS 
       AND A TOTAL OF          5 INNER ITERATIONS.
    ------------------------------------------------

 NO OUTPUT CONTROL FOR STRESS PERIOD   38   TIME STEP   20
 
 SOLVING FOR HEAD 
                                                   Max.-Head-Change                         Max.-Flux-Residual
  Residual-Control   Outer-Iter.   Inner-Iter.     Column Row Layer    Maximum-Head-Change  Column Row Layer    Maximum-Flux-Residual          L2-NORM 
          0                 1           2             2    1     1       0.1509906043E-02       2    1    1         0.7854939306E-01      0.1312861631E+00
          0                 2           2             2    1     1      -0.1468728157E-03       2    1    1        -0.7854947979E-02      0.1312862448E-01
          0                 3           1             2    1     1       0.1000149248E-04       2    1    1         0.5498465160E-03      0.9190042691E-03

    ------------------------------------------------
       NWT REQUIRED            3 OUTER ITERATIONS 
       AND A TOTAL OF          5 INNER ITERATIONS.
    ------------------------------------------------

 NO OUTPUT CONTROL FOR STRESS PERIOD   38   TIME STEP   21
 
 SOLVING FOR HEAD 
                                                   Max.-Head-Change                         Max.-Flux-Residual
  Residual-Control   Outer-Iter.   Inner-Iter.     Column Row Layer    Maximum-Head-Change  Column Row Layer    Maximum-Flux-Residual          L2-NORM 
          0                 1           2             2    1     1       0.1505124710E-02       2    1    1         0.7830006151E-01      0.1303964790E+00
          0                 2           2             2    1     1      -0.1464077212E-03       2    1    1        -0.7830014741E-02      0.1303965598E-01
          0                 3           1             2    1     1       0.9969821100E-05       2    1    1         0.5481011833E-03      0.9127764669E-03

    ------------------------------------------------
       NWT REQUIRED            3 OUTER ITERATIONS 
       AND A TOTAL OF          5 INNER ITERATIONS.
    ------------------------------------------------

 NO OUTPUT CONTROL FOR STRESS PERIOD   38   TIME STEP   22
 
 SOLVING FOR HEAD 
                                                   Max.-Head-Change                         Max.-Flux-Residual
  Residual-Control   Outer-Iter.   Inner-Iter.     Column Row Layer    Maximum-Head-Change  Column Row Layer    Maximum-Flux-Residual          L2-NORM 
          0                 1           2             2    1     1       0.1500370584E-02       2    1    1         0.7805215377E-01      0.1295306059E+00
          0                 2           2             2    1     1      -0.1459452731E-03       2    1    1        -0.7805223896E-02      0.1295306829E-01
          0                 3           1             2    1     1       0.9938330302E-05       2    1    1         0.5463658200E-03      0.9067152722E-03

    ------------------------------------------------
       NWT REQUIRED            3 OUTER ITERATIONS 
       AND A TOTAL OF          5 INNER ITERATIONS.
    ------------------------------------------------

 NO OUTPUT CONTROL FOR STRESS PERIOD   38   TIME STEP   23
 
 SOLVING FOR HEAD 
                                                   Max.-Head-Change                         Max.-Flux-Residual
  Residual-Control   Outer-Iter.   Inner-Iter.     Column Row Layer    Maximum-Head-Change  Column Row Layer    Maximum-Flux-Residual          L2-NORM 
          0                 1           2             2    1     1       0.1495643541E-02       2    1    1         0.7780565663E-01      0.1286697445E+00
          0                 2           2             2    1     1      -0.1454854597E-03       2    1    1        -0.7780574114E-02      0.1286698240E-01
          0                 3           1             2    1     1       0.9907018664E-05       2    1    1         0.5446403405E-03      0.9006894569E-03

    ------------------------------------------------
       NWT REQUIRED            3 OUTER ITERATIONS 
       AND A TOTAL OF          5 INNER ITERATIONS.
    ------------------------------------------------

 NO OUTPUT CONTROL FOR STRESS PERIOD   38   TIME STEP   24
 
 SOLVING FOR HEAD 
                                                   Max.-Head-Change                         Max.-Flux-Residual
  Residual-Control   Outer-Iter.   Inner-Iter.     Column Row Layer    Maximum-Head-Change  Column Row Layer    Maximum-Flux-Residual          L2-NORM 
          0                 1           2             2    1     1       0.1490943203E-02       2    1    1         0.7756056379E-01      0.1278355383E+00
          0                 2           2             2    1     1      -0.1450282439E-03       2    1    1        -0.7756064773E-02      0.1278356359E-01
          0                 3           1             2    1     1       0.9875883822E-05       2    1    1         0.5429246676E-03      0.8948624410E-03

    ------------------------------------------------
       NWT REQUIRED            3 OUTER ITERATIONS 
       AND A TOTAL OF          5 INNER ITERATIONS.
    ------------------------------------------------

 NO OUTPUT CONTROL FOR STRESS PERIOD   38   TIME STEP   25
 
 SOLVING FOR HEAD 
                                                   Max.-Head-Change                         Max.-Flux-Residual
  Residual-Control   Outer-Iter.   Inner-Iter.     Column Row Layer    Maximum-Head-Change  Column Row Layer    Maximum-Flux-Residual          L2-NORM 
          0                 1           2             2    1     1       0.1486291319E-02       2    1    1         0.7731799889E-01      0.1270173437E+00
          0                 2           2             2    1     1      -0.1445757414E-03       2    1    1        -0.7731808196E-02      0.1270174242E-01
          0                 3           1             2    1     1       0.9845070382E-05       2    1    1         0.5412267261E-03      0.8891225145E-03

    ------------------------------------------------
       NWT REQUIRED            3 OUTER ITERATIONS 
       AND A TOTAL OF          5 INNER ITERATIONS.
    ------------------------------------------------

 NO OUTPUT CONTROL FOR STRESS PERIOD   38   TIME STEP   26
 
 SOLVING FOR HEAD 
                                                   Max.-Head-Change                         Max.-Flux-Residual
  Residual-Control   Outer-Iter.   Inner-Iter.     Column Row Layer    Maximum-Head-Change  Column Row Layer    Maximum-Flux-Residual          L2-NORM 
          0                 1           2             2    1     1       0.1481643730E-02       2    1    1         0.7707565956E-01      0.1262101355E+00
          0                 2           2             2    1     1      -0.1441236570E-03       2    1    1        -0.7707574211E-02      0.1262102203E-01
          0                 3           1             2    1     1       0.9814285106E-05       2    1    1         0.5395303516E-03      0.8834721946E-03

    ------------------------------------------------
       NWT REQUIRED            3 OUTER ITERATIONS 
       AND A TOTAL OF          5 INNER ITERATIONS.
    ------------------------------------------------

 NO OUTPUT CONTROL FOR STRESS PERIOD   38   TIME STEP   27
 
 SOLVING FOR HEAD 
                                                   Max.-Head-Change                         Max.-Flux-Residual
  Residual-Control   Outer-Iter.   Inner-Iter.     Column Row Layer    Maximum-Head-Change  Column Row Layer    Maximum-Flux-Residual          L2-NORM 
          0                 1           2             2    1     1       0.1477022117E-02       2    1    1         0.7683468629E-01      0.1254195653E+00
          0                 2           2             2    1     1      -0.1436740992E-03       2    1    1        -0.7683476841E-02      0.1254196472E-01
          0                 3           1             2    1     1       0.9783671892E-05       2    1    1         0.5378435212E-03      0.8779382389E-03

    ------------------------------------------------
       NWT REQUIRED            3 OUTER ITERATIONS 
       AND A TOTAL OF          5 INNER ITERATIONS.
    ------------------------------------------------

 NO OUTPUT CONTROL FOR STRESS PERIOD   38   TIME STEP   28
 
 SOLVING FOR HEAD 
                                                   Max.-Head-Change                         Max.-Flux-Residual
  Residual-Control   Outer-Iter.   Inner-Iter.     Column Row Layer    Maximum-Head-Change  Column Row Layer    Maximum-Flux-Residual          L2-NORM 
          0                 1           2             2    1     1       0.1472426344E-02       2    1    1         0.7659505984E-01      0.1246457502E+00
          0                 2           2             2    1     1      -0.1432270546E-03       2    1    1        -0.7659514111E-02      0.1246458348E-01
          0                 3           1             2    1     1       0.9753229792E-05       2    1    1         0.5361661379E-03      0.8725223256E-03

    ------------------------------------------------
       NWT REQUIRED            3 OUTER ITERATIONS 
       AND A TOTAL OF          5 INNER ITERATIONS.
    ------------------------------------------------

 NO OUTPUT CONTROL FOR STRESS PERIOD   38   TIME STEP   29
 
 SOLVING FOR HEAD 
                                                   Max.-Head-Change                         Max.-Flux-Residual
  Residual-Control   Outer-Iter.   Inner-Iter.     Column Row Layer    Maximum-Head-Change  Column Row Layer    Maximum-Flux-Residual          L2-NORM 
          0                 1           2             2    1     1       0.1467856107E-02       2    1    1         0.7635677320E-01      0.1238874366E+00
          0                 2           2             2    1     1      -0.1427824945E-03       2    1    1        -0.7635685375E-02      0.1238875072E-01
          0                 3           1             2    1     1       0.9722957151E-05       2    1    1         0.5344981525E-03      0.8672131933E-03

    ------------------------------------------------
       NWT REQUIRED            3 OUTER ITERATIONS 
       AND A TOTAL OF          5 INNER ITERATIONS.
    ------------------------------------------------

 NO OUTPUT CONTROL FOR STRESS PERIOD   38   TIME STEP   30



 STREAM LISTING     PERIOD     38   STEP       30

 LAYER ROW COL. STREAM  RCH.  FLOW INTO     FLOW TO   FLOW OUT OF   OVRLND.     DIRECT     STREAM       STREAM     STREAM     STREAM   STREAMBED  STREAMBED
                SEG.NO.  NO.  STRM. RCH.    AQUIFER    STRM. RCH.    RUNOFF     PRECIP       ET          HEAD       DEPTH      WIDTH   CONDCTNC.   GRADIENT

   1    1    1     1     1    1.4250E+01  1.8168E-01   1.4068E+01  0.000E+00  0.000E+00  0.000E+00  1.09404E+03  9.953E-01  1.011E+01  4.547E-02  1.332E+00
   1    2    2     1     2    1.4068E+01  2.7999E-01   1.3788E+01  0.000E+00  0.000E+00  0.000E+00  1.08905E+03  9.906E-01  1.002E+01  7.016E-02  1.330E+00
   1    3    3     1     3    1.3788E+01  2.3744E-01   1.3550E+01  0.000E+00  0.000E+00  0.000E+00  1.08340E+03  9.852E-01  9.930E+00  5.958E-02  1.328E+00
   1    3    4     1     4    1.3550E+01  2.1755E-01   1.3333E+01  0.000E+00  0.000E+00  0.000E+00  1.07839E+03  9.805E-01  9.847E+00  5.465E-02  1.327E+00
   1    4    5     2     1    1.1333E+01  2.9214E-01   1.1041E+01  0.000E+00  0.000E+00  0.000E+00  1.07268E+03  7.454E-01  1.200E+01  7.800E-02  1.248E+00
   1    5    6     2     2    1.1041E+01  2.2410E-01   1.0817E+01  0.000E+00  0.000E+00  0.000E+00  1.06724E+03  7.350E-01  1.200E+01  6.000E-02  1.245E+00
   1    6    6     2     3    1.0817E+01  2.2356E-01   1.0593E+01  0.000E+00  0.000E+00  0.000E+00  1.06252E+03  7.259E-01  1.200E+01  6.000E-02  1.242E+00
   1    7    6     2     4    1.0593E+01  2.2301E-01   1.0370E+01  0.000E+00  0.000E+00  0.000E+00  1.05779E+03  7.168E-01  1.200E+01  6.000E-02  1.239E+00
   1    8    6     2     5    1.0370E+01  2.2246E-01   1.0148E+01  0.000E+00  0.000E+00  0.000E+00  1.05307E+03  7.076E-01  1.200E+01  6.000E-02  1.236E+00
   1    3    5     3     1    2.0000E+00  2.8252E-01   1.7175E+00  0.000E+00  0.000E+00  0.000E+00  1.07555E+03  1.909E+00  9.636E+00  7.227E-02  1.955E+00
   1    3    6     3     2    1.7175E+00  2.4905E-01   1.4684E+00  0.000E+00  0.000E+00  0.000E+00  1.07264E+03  1.727E+00  8.909E+00  6.682E-02  1.864E+00
   1    3    7     3     3    1.4684E+00  1.9718E-01   1.2712E+00  0.000E+00  0.000E+00  0.000E+00  1.06987E+03  1.555E+00  8.218E+00  5.547E-02  1.777E+00
   1    4    8     3     4    1.2712E+00  2.2567E-01   1.0456E+00  0.000E+00  0.000E+00  0.000E+00  1.06682E+03  1.364E+00  7.455E+00  6.709E-02  1.682E+00
   1    5    8     3     5    1.0456E+00  1.5790E-01   8.8768E-01  0.000E+00  0.000E+00  0.000E+00  1.06362E+03  1.164E+00  6.655E+00  4.991E-02  1.582E+00
   1    6    8     3     6    8.8768E-01  5.5980E-02   8.3170E-01  0.000E+00  0.000E+00  0.000E+00  1.06158E+03  1.036E+00  6.145E+00  1.844E-02  1.518E+00
   1    5   10     4     1    1.0000E+01  9.0919E-02   9.9091E+00  0.000E+00  0.000E+00  0.000E+00  1.07836E+03  6.368E-01  1.000E+01  2.500E-02  1.212E+00
   1    5    9     4     2    9.9091E+00  1.8158E-01   9.7275E+00  0.000E+00  0.000E+00  0.000E+00  1.07154E+03  6.315E-01  1.000E+01  5.000E-02  1.211E+00
   1    6    8     4     3    9.7275E+00  1.2689E-01   9.6006E+00  0.000E+00  0.000E+00  0.000E+00  1.06381E+03  6.256E-01  1.000E+01  3.500E-02  1.209E+00
   1    6    8     5     1    1.0432E+01  2.2686E-01   1.0205E+01  0.000E+00  0.000E+00  0.000E+00  1.05868E+03  6.790E-01  1.542E+01  6.166E-02  1.226E+00
   1    7    7     5     2    1.0205E+01  2.7894E-01   9.9265E+00  0.000E+00  0.000E+00  0.000E+00  1.05417E+03  6.732E-01  1.519E+01  7.594E-02  1.224E+00
   1    8    7     5     3    9.9265E+00  1.9221E-01   9.7343E+00  0.000E+00  0.000E+00  0.000E+00  1.04992E+03  6.676E-01  1.497E+01  5.241E-02  1.223E+00
   1    8    6     5     4    9.7343E+00  1.3577E-01   9.5985E+00  0.000E+00  0.000E+00  0.000E+00  1.04691E+03  6.637E-01  1.482E+01  3.706E-02  1.221E+00
   1    9    6     6     1    9.5985E+00  2.2097E-01   9.3776E+00  0.000E+00  0.000E+00  0.000E+00  1.04341E+03  6.828E-01  1.200E+01  6.000E-02  1.228E+00
   1   10    7     6     2    9.3776E+00  2.2039E-01   9.1572E+00  0.000E+00  0.000E+00  0.000E+00  1.03885E+03  6.732E-01  1.200E+01  6.000E-02  1.224E+00
   1   11    7     6     3    9.1572E+00  2.1981E-01   8.9374E+00  0.000E+00  0.000E+00  0.000E+00  1.03430E+03  6.636E-01  1.200E+01  6.000E-02  1.221E+00
   1   12    7     6     4    8.9374E+00  2.1923E-01   8.7181E+00  0.000E+00  0.000E+00  0.000E+00  1.02974E+03  6.539E-01  1.200E+01  6.000E-02  1.218E+00
   1   13    7     6     5    8.7181E+00 -1.1032E-01   8.8284E+00  0.000E+00  0.000E+00  0.000E+00  1.02656E+03  6.514E-01  1.200E+01  2.400E-01 -1.532E-01
   1   14    9     7     1    1.5000E+02  1.3453E+00   1.4865E+02  0.000E+00  0.000E+00  0.000E+00  1.03987E+03  2.288E+00  5.529E+01  5.593E-01  8.018E-01
   1   13    8     7     2    1.4865E+02  1.8505E+00   1.4680E+02  0.000E+00  0.000E+00  0.000E+00  1.03478E+03  2.279E+00  5.526E+01  6.148E-01  1.003E+00
   1   13    7     7     3    1.4680E+02  1.4907E+00   1.4531E+02  0.000E+00  0.000E+00  0.000E+00  1.02969E+03  2.270E+00  5.522E+01  5.584E-01  8.898E-01
   1   13    6     8     1    1.5414E+02  8.4287E-01   1.5330E+02  0.000E+00  0.000E+00  0.000E+00  1.02472E+03  2.843E+00  4.122E+01  4.201E-01  6.689E-01
   1   13    5     8     2    1.5330E+02  1.1252E-01   1.5319E+02  0.000E+00  0.000E+00  0.000E+00  1.01846E+03  2.840E+00  4.117E+01  4.196E-01  8.940E-02
   1   13    4     8     3    1.5319E+02 -2.6389E+00   1.5583E+02  0.000E+00  0.000E+00  0.000E+00  1.01222E+03  2.848E+00  4.130E+01  4.209E+00 -2.090E-01
   1   13    3     8     4    1.5583E+02 -3.7262E+00   1.5955E+02  0.000E+00  0.000E+00  0.000E+00  1.00600E+03  2.870E+00  4.162E+01  4.241E+00 -2.929E-01
   1   13    2     8     5    1.5955E+02 -2.5925E+00   1.6214E+02  0.000E+00  0.000E+00  0.000E+00  9.99767E+02  2.892E+00  4.193E+01  4.273E+00 -2.023E-01
   1   13    1     8     6    1.6214E+02 -1.9792E+00   1.6412E+02  0.000E+00  0.000E+00  0.000E+00  9.94782E+02  2.907E+00  4.215E+01  2.577E+00 -2.560E-01
   1    8    6     9     1    1.0148E+01  0.0000E+00   1.0148E+01  0.000E+00  0.000E+00  0.000E+00  1.08104E+03  2.286E+00  4.000E+00  0.000E+00  1.762E+00
   1    8    5     9     2    1.0148E+01  0.0000E+00   1.0148E+01  0.000E+00  0.000E+00  0.000E+00  1.08054E+03  2.286E+00  4.000E+00  0.000E+00  1.762E+00





UNSATURATED ZONE PACKAGE VOLUMETRIC BUDGET FOR  TIME STEP    30 STRESS PERIOD   38
  ------------------------------------------------------------------------------



     CUMULATIVE VOLUMES      L**3       RATES FOR THIS TIME STEP      L**3/T
     ------------------                 ------------------------

           IN:                                      IN:
           ---                                      ---
        INFILTRATION =    82543444.2914          INFILTRATION =           0.8475

          OUT:                                     OUT:
          ----                                     ----
              UZF ET =    80967799.9438                UZF ET =           0.7500
        UZF RECHARGE =       73224.0000          UZF RECHARGE =       0.0000E+00

            IN - OUT =     1502420.3476              IN - OUT =       9.7500E-02

          STORAGE:                                 STORAGE:
          --------                                 --------
      STORAGE CHANGE =     1502420.6739        STORAGE CHANGE =       9.7500E-02

 PERCENT DISCREPANCY IS DIFFERENCE BETWEEN IN-OUT MINUS CHANGE IN STORAGE
 DIVIDED BY THE AVERAGE OF IN AND OUT TIMES 100

 PERCENT DISCREPANCY =           0.00     PERCENT DISCREPANCY =           0.00






1
  VOLUMETRIC BUDGET FOR ENTIRE MODEL AT END OF TIME STEP   30, STRESS PERIOD  38
  ------------------------------------------------------------------------------

     CUMULATIVE VOLUMES      L**3       RATES FOR THIS TIME STEP      L**3/T
     ------------------                 ------------------------

           IN:                                      IN:
           ---                                      ---
             STORAGE     =    30202676.0000               STORAGE     =           0.2743
       CONSTANT HEAD     =           0.0000         CONSTANT HEAD     =           0.0000
     HEAD DEP BOUNDS     =    27869898.0000       HEAD DEP BOUNDS     =           0.2864
      STREAM LEAKAGE     =  1139959552.0000        STREAM LEAKAGE     =          11.0257
        UZF RECHARGE     =       73223.9531          UZF RECHARGE     =           0.0000
               GW ET     =           0.0000                 GW ET     =           0.0000
     SURFACE LEAKAGE     =           0.0000       SURFACE LEAKAGE     =           0.0000

                TOTAL IN =  1198105344.0000                  TOTAL IN =          11.5864

          OUT:                                     OUT:
          ----                                     ----
             STORAGE     =    91912096.0000               STORAGE     =           0.2525
       CONSTANT HEAD     =           0.0000         CONSTANT HEAD     =           0.0000
     HEAD DEP BOUNDS     =    27944956.0000       HEAD DEP BOUNDS     =           0.2869
      STREAM LEAKAGE     =  1078265216.0000        STREAM LEAKAGE     =          11.0471
        UZF RECHARGE     =           0.0000          UZF RECHARGE     =           0.0000
               GW ET     =           0.0000                 GW ET     =           0.0000
     SURFACE LEAKAGE     =           0.0000       SURFACE LEAKAGE     =           0.0000

               TOTAL OUT =  1198122240.0000                 TOTAL OUT =          11.5864

                IN - OUT =      -16896.0000                  IN - OUT =       1.1444E-05

     PERCENT DISCREPANCY =          -0.00         PERCENT DISCREPANCY =           0.00






         TIME SUMMARY AT END OF TIME STEP   30 IN STRESS PERIOD   38
                    SECONDS     MINUTES      HOURS       DAYS        YEARS
                    -----------------------------------------------------------
   TIME STEP LENGTH  87667.      1461.1      24.352      1.0147     2.77799E-03
 STRESS PERIOD TIME 2.63000E+06  43833.      730.56      30.440     8.33397E-02
         TOTAL TIME 9.73959E+07 1.62326E+06  27054.      1127.3      3.0863    
1
1
                            STRESS PERIOD NO.   39, LENGTH =   2630000.    
                            -----------------------------------------------

                              NUMBER OF TIME STEPS =    30

                               MULTIPLIER FOR DELT =     1.000

                            INITIAL TIME STEP SIZE =   87666.66    

 REUSING NON-PARAMETER GHB CELLS FROM LAST STRESS PERIOD

      2 GHB CELLS

 REUSING STREAM SEGMENT DATA FROM LAST STRESS PERIOD



            AREAL INFILTRATION RATE
 READING ON UNIT   19 WITH FORMAT: (FREE)              

            1           2           3           4           5           6           7           8           9          10
 ........................................................................................................................
   1   1.0000E-10  2.0000E-10   0.000       0.000       0.000       0.000       0.000       0.000       0.000       0.000    
   2   2.0000E-10  1.0000E-10  2.0000E-10   0.000       0.000      8.0000E-10  8.0000E-10  5.0000E-10   0.000       0.000    
   3    0.000      5.0000E-10  1.0000E-10  1.0000E-10  8.0000E-10  8.0000E-10  5.0000E-10  5.0000E-10   0.000       0.000    
   4   8.0000E-10  5.0000E-10  1.0000E-10  1.0000E-10  1.0000E-10  1.0000E-10  1.0000E-10  1.0000E-10  2.0000E-10   0.000    
   5   8.0000E-10  5.0000E-10  1.0000E-10  1.0000E-10  1.0000E-10  1.0000E-10  1.0000E-10  1.0000E-10  1.0000E-10  1.0000E-10
   6   8.0000E-10  5.0000E-10  5.0000E-10  2.0000E-10  2.0000E-10  1.0000E-10  1.0000E-10  1.0000E-10  1.0000E-10  5.0000E-10
   7   8.0000E-10  5.0000E-10  5.0000E-10  2.0000E-10  2.0000E-10  1.0000E-10  1.0000E-10  2.0000E-10  2.0000E-10   0.000    
   8    0.000      5.0000E-10  5.0000E-10  2.0000E-10  2.0000E-10  1.0000E-10  1.0000E-10  2.0000E-10  5.0000E-10   0.000    
   9    0.000      5.0000E-10  5.0000E-10  2.0000E-10  2.0000E-10  1.0000E-10  1.0000E-10  2.0000E-10  5.0000E-10   0.000    
  10    0.000      5.0000E-10  5.0000E-10  2.0000E-10  2.0000E-10  1.0000E-10  1.0000E-10  2.0000E-10  5.0000E-10  8.0000E-10
  11    0.000      1.0000E-10  1.0000E-10  1.0000E-10  1.0000E-10  1.0000E-10  1.0000E-10  2.0000E-10  5.0000E-10   0.000    
  12   1.0000E-10  1.0000E-10  1.0000E-10  1.0000E-10  1.0000E-10  1.0000E-10  1.0000E-10  1.0000E-10  2.0000E-10   0.000    
  13   1.0000E-10  1.0000E-10  2.0000E-10  2.0000E-10  2.0000E-10  2.0000E-10  2.0000E-10  1.0000E-10  1.0000E-10   0.000    
  14    0.000      2.0000E-10  5.0000E-10  5.0000E-10  5.0000E-10  5.0000E-10  5.0000E-10  2.0000E-10  1.0000E-10   0.000    
  15    0.000       0.000      8.0000E-10  8.0000E-10  8.0000E-10  8.0000E-10   0.000       0.000       0.000       0.000    

                  ET RATE =  5.000000E-10

 USING ET EXTINCTION DEPTH FROM PREVIOUS STRESS PERIOD. CURRENT PERIOD IS:      39

 USING EXTINCTION WATER CONTENT FROM PREVIOUS STRESS PERIOD. CURRENT PERIOD IS:      39

 USING AIR ENTRY PRESSURE FROM PREVIOUS STRESS PERIOD. CURRENT PERIOD IS:      39

 USING ROOT PRESSURE HEAD FROM PREVIOUS STRESS PERIOD. CURRENT PERIOD IS:      39

 USING ROOT ACTIVITY FROM PREVIOUS STRESS PERIOD. CURRENT PERIOD IS:      39
 
 SOLVING FOR HEAD 
                                                   Max.-Head-Change                         Max.-Flux-Residual
  Residual-Control   Outer-Iter.   Inner-Iter.     Column Row Layer    Maximum-Head-Change  Column Row Layer    Maximum-Flux-Residual          L2-NORM 
          0                 1           2             2    1     1       0.1463311247E-02       2    1    1         0.7611981055E-01      0.1231346241E+00
          0                 2           2             2    1     1      -0.1423404023E-03       2    1    1        -0.7611989056E-02      0.1231346959E-01
          0                 3           1             2    1     1       0.9692852311E-05       2    1    1         0.5328393869E-03      0.8619426632E-03

    ------------------------------------------------
       NWT REQUIRED            3 OUTER ITERATIONS 
       AND A TOTAL OF          5 INNER ITERATIONS.
    ------------------------------------------------

 NO OUTPUT CONTROL FOR STRESS PERIOD   39   TIME STEP    1
 
 SOLVING FOR HEAD 
                                                   Max.-Head-Change                         Max.-Flux-Residual
  Residual-Control   Outer-Iter.   Inner-Iter.     Column Row Layer    Maximum-Head-Change  Column Row Layer    Maximum-Flux-Residual          L2-NORM 
          0                 1           2             2    1     1       0.1458769563E-02       2    1    1         0.7588302002E-01      0.1224064467E+00
          0                 2           2             2    1     1      -0.1418986189E-03       2    1    1        -0.7588309921E-02      0.1224065275E-01
          0                 3           1             2    1     1       0.9662768061E-05       2    1    1         0.5311818370E-03      0.8568462510E-03

    ------------------------------------------------
       NWT REQUIRED            3 OUTER ITERATIONS 
       AND A TOTAL OF          5 INNER ITERATIONS.
    ------------------------------------------------

 NO OUTPUT CONTROL FOR STRESS PERIOD   39   TIME STEP    2
 
 SOLVING FOR HEAD 
                                                   Max.-Head-Change                         Max.-Flux-Residual
  Residual-Control   Outer-Iter.   Inner-Iter.     Column Row Layer    Maximum-Head-Change  Column Row Layer    Maximum-Flux-Residual          L2-NORM 
          0                 1           2             2    1     1       0.1454699849E-02       2    1    1         0.7564868152E-01      0.1113549433E+00
          0                 2           2             2    1     1      -0.1415027420E-03       2    1    1        -0.7564875745E-02      0.1113550253E-01
          0                 3           1             2    1     1       0.9635810976E-05       2    1    1         0.5295414604E-03      0.7794859361E-03

    ------------------------------------------------
       NWT REQUIRED            3 OUTER ITERATIONS 
       AND A TOTAL OF          5 INNER ITERATIONS.
    ------------------------------------------------

 NO OUTPUT CONTROL FOR STRESS PERIOD   39   TIME STEP    3
 
 SOLVING FOR HEAD 
                                                   Max.-Head-Change                         Max.-Flux-Residual
  Residual-Control   Outer-Iter.   Inner-Iter.     Column Row Layer    Maximum-Head-Change  Column Row Layer    Maximum-Flux-Residual          L2-NORM 
          0                 1           2             2    1     1       0.1450855330E-02       2    1    1         0.7543767718E-01      0.1068099406E+00
          0                 2           2             2    1     1      -0.1411287720E-03       2    1    1        -0.7543775094E-02      0.1068100261E-01
          0                 3           1             2    1     1       0.9610345168E-05       2    1    1         0.5280644204E-03      0.7476734087E-03

    ------------------------------------------------
       NWT REQUIRED            3 OUTER ITERATIONS 
       AND A TOTAL OF          5 INNER ITERATIONS.
    ------------------------------------------------

 NO OUTPUT CONTROL FOR STRESS PERIOD   39   TIME STEP    4
 
 SOLVING FOR HEAD 
                                                   Max.-Head-Change                         Max.-Flux-Residual
  Residual-Control   Outer-Iter.   Inner-Iter.     Column Row Layer    Maximum-Head-Change  Column Row Layer    Maximum-Flux-Residual          L2-NORM 
          0                 1           2             2    1     1       0.1447030656E-02       2    1    1         0.7523834558E-01      0.1063559968E+00
          0                 2           2             2    1     1      -0.1407567346E-03       2    1    1        -0.7523841882E-02      0.1063560751E-01
          0                 3           1             2    1     1       0.9585010951E-05       2    1    1         0.5266691016E-03      0.7444930018E-03

    ------------------------------------------------
       NWT REQUIRED            3 OUTER ITERATIONS 
       AND A TOTAL OF          5 INNER ITERATIONS.
    ------------------------------------------------

 NO OUTPUT CONTROL FOR STRESS PERIOD   39   TIME STEP    5
 
 SOLVING FOR HEAD 
                                                   Max.-Head-Change                         Max.-Flux-Residual
  Residual-Control   Outer-Iter.   Inner-Iter.     Column Row Layer    Maximum-Head-Change  Column Row Layer    Maximum-Flux-Residual          L2-NORM 
          0                 1           2             2    1     1       0.1443225501E-02       2    1    1         0.7504003974E-01      0.1059084249E+00
          0                 2           2             2    1     1      -0.1403865959E-03       2    1    1        -0.7504011227E-02      0.1059085031E-01
          0                 3           1             2    1     1       0.9559805721E-05       2    1    1         0.5252809571E-03      0.7413604394E-03

    ------------------------------------------------
       NWT REQUIRED            3 OUTER ITERATIONS 
       AND A TOTAL OF          5 INNER ITERATIONS.
    ------------------------------------------------

 NO OUTPUT CONTROL FOR STRESS PERIOD   39   TIME STEP    6
 
 SOLVING FOR HEAD 
                                                   Max.-Head-Change                         Max.-Flux-Residual
  Residual-Control   Outer-Iter.   Inner-Iter.     Column Row Layer    Maximum-Head-Change  Column Row Layer    Maximum-Flux-Residual          L2-NORM 
          0                 1           2             2    1     1       0.1439417803E-02       2    1    1         0.7484160211E-01      0.1054671678E+00
          0                 2           2             2    1     1      -0.1400162105E-03       2    1    1        -0.7484167449E-02      0.1054672451E-01
          0                 3           1             2    1     1       0.9534583924E-05       2    1    1         0.5238918949E-03      0.7382714955E-03

    ------------------------------------------------
       NWT REQUIRED            3 OUTER ITERATIONS 
       AND A TOTAL OF          5 INNER ITERATIONS.
    ------------------------------------------------

 NO OUTPUT CONTROL FOR STRESS PERIOD   39   TIME STEP    7
 
 SOLVING FOR HEAD 
                                                   Max.-Head-Change                         Max.-Flux-Residual
  Residual-Control   Outer-Iter.   Inner-Iter.     Column Row Layer    Maximum-Head-Change  Column Row Layer    Maximum-Flux-Residual          L2-NORM 
          0                 1           2             2    1     1       0.1435651367E-02       2    1    1         0.7464532030E-01      0.1050397303E+00
          0                 2           2             2    1     1      -0.1396498376E-03       2    1    1        -0.7464539201E-02      0.1050398061E-01
          0                 3           1             2    1     1       0.9509635011E-05       2    1    1         0.5225179001E-03      0.7352790680E-03

    ------------------------------------------------
       NWT REQUIRED            3 OUTER ITERATIONS 
       AND A TOTAL OF          5 INNER ITERATIONS.
    ------------------------------------------------

 NO OUTPUT CONTROL FOR STRESS PERIOD   39   TIME STEP    8
 
 SOLVING FOR HEAD 
                                                   Max.-Head-Change                         Max.-Flux-Residual
  Residual-Control   Outer-Iter.   Inner-Iter.     Column Row Layer    Maximum-Head-Change  Column Row Layer    Maximum-Flux-Residual          L2-NORM 
          0                 1           2             2    1     1       0.1431904078E-02       2    1    1         0.7445003408E-01      0.1046166064E+00
          0                 2           2             2    1     1      -0.1392853281E-03       2    1    1        -0.7445010530E-02      0.1046166918E-01
          0                 3           1             2    1     1       0.9484813665E-05       2    1    1         0.5211509019E-03      0.7323187475E-03

    ------------------------------------------------
       NWT REQUIRED            3 OUTER ITERATIONS 
       AND A TOTAL OF          5 INNER ITERATIONS.
    ------------------------------------------------

 NO OUTPUT CONTROL FOR STRESS PERIOD   39   TIME STEP    9
 
 SOLVING FOR HEAD 
                                                   Max.-Head-Change                         Max.-Flux-Residual
  Residual-Control   Outer-Iter.   Inner-Iter.     Column Row Layer    Maximum-Head-Change  Column Row Layer    Maximum-Flux-Residual          L2-NORM 
          0                 1           2             2    1     1       0.1428175681E-02       2    1    1         0.7425574062E-01      0.1042003944E+00
          0                 2           2             2    1     1      -0.1389226565E-03       2    1    1        -0.7425581155E-02      0.1042004784E-01
          0                 3           1             2    1     1       0.9460117282E-05       2    1    1         0.5197908630E-03      0.7294045708E-03

    ------------------------------------------------
       NWT REQUIRED            3 OUTER ITERATIONS 
       AND A TOTAL OF          5 INNER ITERATIONS.
    ------------------------------------------------

 NO OUTPUT CONTROL FOR STRESS PERIOD   39   TIME STEP   10
 
 SOLVING FOR HEAD 
                                                   Max.-Head-Change                         Max.-Flux-Residual
  Residual-Control   Outer-Iter.   Inner-Iter.     Column Row Layer    Maximum-Head-Change  Column Row Layer    Maximum-Flux-Residual          L2-NORM 
          0                 1           2             2    1     1       0.1424444115E-02       2    1    1         0.7406128259E-01      0.1037879777E+00
          0                 2           2             2    1     1      -0.1385596756E-03       2    1    1        -0.7406135302E-02      0.1037880487E-01
          0                 3           1             2    1     1       0.9435399126E-05       2    1    1         0.5184296264E-03      0.7265174854E-03

    ------------------------------------------------
       NWT REQUIRED            3 OUTER ITERATIONS 
       AND A TOTAL OF          5 INNER ITERATIONS.
    ------------------------------------------------

 NO OUTPUT CONTROL FOR STRESS PERIOD   39   TIME STEP   11
 
 SOLVING FOR HEAD 
                                                   Max.-Head-Change                         Max.-Flux-Residual
  Residual-Control   Outer-Iter.   Inner-Iter.     Column Row Layer    Maximum-Head-Change  Column Row Layer    Maximum-Flux-Residual          L2-NORM 
          0                 1           2             2    1     1       0.1420753303E-02       2    1    1         0.7386894836E-01      0.1033816546E+00
          0                 2           2             2    1     1      -0.1382006596E-03       2    1    1        -0.7386901829E-02      0.1033817251E-01
          0                 3           1             2    1     1       0.9410951724E-05       2    1    1         0.5170832915E-03      0.7236737820E-03

    ------------------------------------------------
       NWT REQUIRED            3 OUTER ITERATIONS 
       AND A TOTAL OF          5 INNER ITERATIONS.
    ------------------------------------------------

 NO OUTPUT CONTROL FOR STRESS PERIOD   39   TIME STEP   12
 
 SOLVING FOR HEAD 
                                                   Max.-Head-Change                         Max.-Flux-Residual
  Residual-Control   Outer-Iter.   Inner-Iter.     Column Row Layer    Maximum-Head-Change  Column Row Layer    Maximum-Flux-Residual          L2-NORM 
          0                 1           2             2    1     1       0.1417058918E-02       2    1    1         0.7367643900E-01      0.1029840311E+00
          0                 2           2             2    1     1      -0.1378412959E-03       2    1    1        -0.7367650851E-02      0.1029841109E-01
          0                 3           1             2    1     1       0.9386479944E-05       2    1    1         0.5157357024E-03      0.7208928044E-03

    ------------------------------------------------
       NWT REQUIRED            3 OUTER ITERATIONS 
       AND A TOTAL OF          5 INNER ITERATIONS.
    ------------------------------------------------

 NO OUTPUT CONTROL FOR STRESS PERIOD   39   TIME STEP   13
 
 SOLVING FOR HEAD 
                                                   Max.-Head-Change                         Max.-Flux-Residual
  Residual-Control   Outer-Iter.   Inner-Iter.     Column Row Layer    Maximum-Head-Change  Column Row Layer    Maximum-Flux-Residual          L2-NORM 
          0                 1           2             2    1     1       0.1413404994E-02       2    1    1         0.7348603272E-01      0.1025923474E+00
          0                 2           2             2    1     1      -0.1374858682E-03       2    1    1        -0.7348610178E-02      0.1025924556E-01
          0                 3           1             2    1     1       0.9362277025E-05       2    1    1         0.5144028720E-03      0.7181605925E-03

    ------------------------------------------------
       NWT REQUIRED            3 OUTER ITERATIONS 
       AND A TOTAL OF          5 INNER ITERATIONS.
    ------------------------------------------------

 NO OUTPUT CONTROL FOR STRESS PERIOD   39   TIME STEP   14
 
 SOLVING FOR HEAD 
                                                   Max.-Head-Change                         Max.-Flux-Residual
  Residual-Control   Outer-Iter.   Inner-Iter.     Column Row Layer    Maximum-Head-Change  Column Row Layer    Maximum-Flux-Residual          L2-NORM 
          0                 1           2             2    1     1       0.1409747334E-02       2    1    1         0.7329543586E-01      0.1022052399E+00
          0                 2           2             2    1     1      -0.1371300770E-03       2    1    1        -0.7329550455E-02      0.1022053150E-01
          0                 3           1             2    1     1       0.9338049019E-05       2    1    1         0.5130686924E-03      0.7154381764E-03

    ------------------------------------------------
       NWT REQUIRED            3 OUTER ITERATIONS 
       AND A TOTAL OF          5 INNER ITERATIONS.
    ------------------------------------------------

 NO OUTPUT CONTROL FOR STRESS PERIOD   39   TIME STEP   15
 
 SOLVING FOR HEAD 
                                                   Max.-Head-Change                         Max.-Flux-Residual
  Residual-Control   Outer-Iter.   Inner-Iter.     Column Row Layer    Maximum-Head-Change  Column Row Layer    Maximum-Flux-Residual          L2-NORM 
          0                 1           2             2    1     1       0.1406129845E-02       2    1    1         0.7310693379E-01      0.1018239485E+00
          0                 2           2             2    1     1      -0.1367781933E-03       2    1    1        -0.7310700197E-02      0.1018240246E-01
          0                 3           1             2    1     1       0.9314087270E-05       2    1    1         0.5117491785E-03      0.7127685683E-03

    ------------------------------------------------
       NWT REQUIRED            3 OUTER ITERATIONS 
       AND A TOTAL OF          5 INNER ITERATIONS.
    ------------------------------------------------

 NO OUTPUT CONTROL FOR STRESS PERIOD   39   TIME STEP   16
 
 SOLVING FOR HEAD 
                                                   Max.-Head-Change                         Max.-Flux-Residual
  Residual-Control   Outer-Iter.   Inner-Iter.     Column Row Layer    Maximum-Head-Change  Column Row Layer    Maximum-Flux-Residual          L2-NORM 
          0                 1           2             2    1     1       0.1402508301E-02       2    1    1         0.7291822599E-01      0.1014461776E+00
          0                 2           2             2    1     1      -0.1364259149E-03       2    1    1        -0.7291829362E-02      0.1014462477E-01
          0                 3           1             2    1     1       0.9290097831E-05       2    1    1         0.5104282103E-03      0.7101242197E-03

    ------------------------------------------------
       NWT REQUIRED            3 OUTER ITERATIONS 
       AND A TOTAL OF          5 INNER ITERATIONS.
    ------------------------------------------------

 NO OUTPUT CONTROL FOR STRESS PERIOD   39   TIME STEP   17
 
 SOLVING FOR HEAD 
                                                   Max.-Head-Change                         Max.-Flux-Residual
  Residual-Control   Outer-Iter.   Inner-Iter.     Column Row Layer    Maximum-Head-Change  Column Row Layer    Maximum-Flux-Residual          L2-NORM 
          0                 1           2             2    1     1       0.1398926649E-02       2    1    1         0.7273159665E-01      0.1010716096E+00
          0                 2           2             2    1     1      -0.1360775173E-03       2    1    1        -0.7273166390E-02      0.1010716827E-01
          0                 3           1             2    1     1       0.9266373702E-05       2    1    1         0.5091218050E-03      0.7075025919E-03

    ------------------------------------------------
       NWT REQUIRED            3 OUTER ITERATIONS 
       AND A TOTAL OF          5 INNER ITERATIONS.
    ------------------------------------------------

 NO OUTPUT CONTROL FOR STRESS PERIOD   39   TIME STEP   18
 
 SOLVING FOR HEAD 
                                                   Max.-Head-Change                         Max.-Flux-Residual
  Residual-Control   Outer-Iter.   Inner-Iter.     Column Row Layer    Maximum-Head-Change  Column Row Layer    Maximum-Flux-Residual          L2-NORM 
          0                 1           2             2    1     1       0.1395340661E-02       2    1    1         0.7254474685E-01      0.1007084880E+00
          0                 2           2             2    1     1      -0.1357286978E-03       2    1    1        -0.7254481370E-02      0.1007085582E-01
          0                 3           1             2    1     1       0.9242620226E-05       2    1    1         0.5078138573E-03      0.7049618158E-03

    ------------------------------------------------
       NWT REQUIRED            3 OUTER ITERATIONS 
       AND A TOTAL OF          5 INNER ITERATIONS.
    ------------------------------------------------

 NO OUTPUT CONTROL FOR STRESS PERIOD   39   TIME STEP   19
 
 SOLVING FOR HEAD 
                                                   Max.-Head-Change                         Max.-Flux-Residual
  Residual-Control   Outer-Iter.   Inner-Iter.     Column Row Layer    Maximum-Head-Change  Column Row Layer    Maximum-Flux-Residual          L2-NORM 
          0                 1           2             2    1     1       0.1391794317E-02       2    1    1         0.7235996107E-01      0.1003499913E+00
          0                 2           2             2    1     1      -0.1353837350E-03       2    1    1        -0.7236002761E-02      0.1003500690E-01
          0                 3           1             2    1     1       0.9219129693E-05       2    1    1         0.5065203559E-03      0.7024550064E-03

    ------------------------------------------------
       NWT REQUIRED            3 OUTER ITERATIONS 
       AND A TOTAL OF          5 INNER ITERATIONS.
    ------------------------------------------------

 NO OUTPUT CONTROL FOR STRESS PERIOD   39   TIME STEP   20
 
 SOLVING FOR HEAD 
                                                   Max.-Head-Change                         Max.-Flux-Residual
  Residual-Control   Outer-Iter.   Inner-Iter.     Column Row Layer    Maximum-Head-Change  Column Row Layer    Maximum-Flux-Residual          L2-NORM 
          0                 1           2             2    1     1       0.1388243362E-02       2    1    1         0.7217494191E-01      0.9999669613E-01
          0                 2           2             2    1     1      -0.1350383228E-03       2    1    1        -0.7217500793E-02      0.9999676678E-02
          0                 3           1             2    1     1       0.9195608157E-05       2    1    1         0.5052251997E-03      0.6999776505E-03

    ------------------------------------------------
       NWT REQUIRED            3 OUTER ITERATIONS 
       AND A TOTAL OF          5 INNER ITERATIONS.
    ------------------------------------------------

 NO OUTPUT CONTROL FOR STRESS PERIOD   39   TIME STEP   21
 
 SOLVING FOR HEAD 
                                                   Max.-Head-Change                         Max.-Flux-Residual
  Residual-Control   Outer-Iter.   Inner-Iter.     Column Row Layer    Maximum-Head-Change  Column Row Layer    Maximum-Flux-Residual          L2-NORM 
          0                 1           2             2    1     1       0.1384709735E-02       2    1    1         0.7199082813E-01      0.9964314655E-01
          0                 2           2             2    1     1      -0.1346945970E-03       2    1    1        -0.7199089391E-02      0.9964322294E-02
          0                 3           1             2    1     1       0.9172201881E-05       2    1    1         0.5039364204E-03      0.6975078972E-03

    ------------------------------------------------
       NWT REQUIRED            3 OUTER ITERATIONS 
       AND A TOTAL OF          5 INNER ITERATIONS.
    ------------------------------------------------

 NO OUTPUT CONTROL FOR STRESS PERIOD   39   TIME STEP   22
 
 SOLVING FOR HEAD 
                                                   Max.-Head-Change                         Max.-Flux-Residual
  Residual-Control   Outer-Iter.   Inner-Iter.     Column Row Layer    Maximum-Head-Change  Column Row Layer    Maximum-Flux-Residual          L2-NORM 
          0                 1           2             2    1     1       0.1381215323E-02       2    1    1         0.7180875737E-01      0.9929657762E-01
          0                 2           2             2    1     1      -0.1343546854E-03       2    1    1        -0.7180882277E-02      0.9929663696E-02
          0                 3           1             2    1     1       0.9149054998E-05       2    1    1         0.5026619106E-03      0.6950758236E-03

    ------------------------------------------------
       NWT REQUIRED            3 OUTER ITERATIONS 
       AND A TOTAL OF          5 INNER ITERATIONS.
    ------------------------------------------------

 NO OUTPUT CONTROL FOR STRESS PERIOD   39   TIME STEP   23
 
 SOLVING FOR HEAD 
                                                   Max.-Head-Change                         Max.-Flux-Residual
  Residual-Control   Outer-Iter.   Inner-Iter.     Column Row Layer    Maximum-Head-Change  Column Row Layer    Maximum-Flux-Residual          L2-NORM 
          0                 1           2             2    1     1       0.1377716028E-02       2    1    1         0.7162643065E-01      0.9895767115E-01
          0                 2           2             2    1     1      -0.1340142985E-03       2    1    1        -0.7162649546E-02      0.9895774331E-02
          0                 3           1             2    1     1       0.9125875928E-05       2    1    1         0.5013856257E-03      0.6927052988E-03

    ------------------------------------------------
       NWT REQUIRED            3 OUTER ITERATIONS 
       AND A TOTAL OF          5 INNER ITERATIONS.
    ------------------------------------------------

 NO OUTPUT CONTROL FOR STRESS PERIOD   39   TIME STEP   24
 
 SOLVING FOR HEAD 
                                                   Max.-Head-Change                         Max.-Flux-Residual
  Residual-Control   Outer-Iter.   Inner-Iter.     Column Row Layer    Maximum-Head-Change  Column Row Layer    Maximum-Flux-Residual          L2-NORM 
          0                 1           2             2    1     1       0.1374233665E-02       2    1    1         0.7144499540E-01      0.9861895319E-01
          0                 2           2             2    1     1      -0.1336755590E-03       2    1    1        -0.7144505988E-02      0.9861902396E-02
          0                 3           1             2    1     1       0.9102809277E-05       2    1    1         0.5001155728E-03      0.6903335496E-03

    ------------------------------------------------
       NWT REQUIRED            3 OUTER ITERATIONS 
       AND A TOTAL OF          5 INNER ITERATIONS.
    ------------------------------------------------

 NO OUTPUT CONTROL FOR STRESS PERIOD   39   TIME STEP   25
 
 SOLVING FOR HEAD 
                                                   Max.-Head-Change                         Max.-Flux-Residual
  Residual-Control   Outer-Iter.   Inner-Iter.     Column Row Layer    Maximum-Head-Change  Column Row Layer    Maximum-Flux-Residual          L2-NORM 
          0                 1           2             2    1     1       0.1370790128E-02       2    1    1         0.7126558279E-01      0.9828562500E-01
          0                 2           2             2    1     1      -0.1333405961E-03       2    1    1        -0.7126564682E-02      0.9828569047E-02
          0                 3           1             2    1     1       0.9079999417E-05       2    1    1         0.4988596877E-03      0.6880002734E-03

    ------------------------------------------------
       NWT REQUIRED            3 OUTER ITERATIONS 
       AND A TOTAL OF          5 INNER ITERATIONS.
    ------------------------------------------------

 NO OUTPUT CONTROL FOR STRESS PERIOD   39   TIME STEP   26
 
 SOLVING FOR HEAD 
                                                   Max.-Head-Change                         Max.-Flux-Residual
  Residual-Control   Outer-Iter.   Inner-Iter.     Column Row Layer    Maximum-Head-Change  Column Row Layer    Maximum-Flux-Residual          L2-NORM 
          0                 1           2             2    1     1       0.1367341220E-02       2    1    1         0.7108589381E-01      0.9795697929E-01
          0                 2           2             2    1     1      -0.1330051106E-03       2    1    1        -0.7108595740E-02      0.9795704761E-02
          0                 3           1             2    1     1       0.9057153820E-05       2    1    1         0.4976018559E-03      0.6856993428E-03

    ------------------------------------------------
       NWT REQUIRED            3 OUTER ITERATIONS 
       AND A TOTAL OF          5 INNER ITERATIONS.
    ------------------------------------------------

 NO OUTPUT CONTROL FOR STRESS PERIOD   39   TIME STEP   27
 
 SOLVING FOR HEAD 
                                                   Max.-Head-Change                         Max.-Flux-Residual
  Residual-Control   Outer-Iter.   Inner-Iter.     Column Row Layer    Maximum-Head-Change  Column Row Layer    Maximum-Flux-Residual          L2-NORM 
          0                 1           2             2    1     1       0.1363908964E-02       2    1    1         0.7090707104E-01      0.9763229422E-01
          0                 2           2             2    1     1      -0.1326712454E-03       2    1    1        -0.7090713444E-02      0.9763338462E-02
          0                 3           1             2    1     1       0.9034418985E-05       2    1    1         0.4963500865E-03      0.6834338415E-03

    ------------------------------------------------
       NWT REQUIRED            3 OUTER ITERATIONS 
       AND A TOTAL OF          5 INNER ITERATIONS.
    ------------------------------------------------

 NO OUTPUT CONTROL FOR STRESS PERIOD   39   TIME STEP   28
 
 SOLVING FOR HEAD 
                                                   Max.-Head-Change                         Max.-Flux-Residual
  Residual-Control   Outer-Iter.   Inner-Iter.     Column Row Layer    Maximum-Head-Change  Column Row Layer    Maximum-Flux-Residual          L2-NORM 
          0                 1           2             2    1     1       0.1360493134E-02       2    1    1         0.7072911169E-01      0.9731079445E-01
          0                 2           2             2    1     1      -0.1323389775E-03       2    1    1        -0.7072917451E-02      0.9731086295E-02
          0                 3           1             2    1     1       0.9011792784E-05       2    1    1         0.4951043697E-03      0.6811781016E-03

    ------------------------------------------------
       NWT REQUIRED            3 OUTER ITERATIONS 
       AND A TOTAL OF          5 INNER ITERATIONS.
    ------------------------------------------------

 NO OUTPUT CONTROL FOR STRESS PERIOD   39   TIME STEP   29
 
 SOLVING FOR HEAD 
                                                   Max.-Head-Change                         Max.-Flux-Residual
  Residual-Control   Outer-Iter.   Inner-Iter.     Column Row Layer    Maximum-Head-Change  Column Row Layer    Maximum-Flux-Residual          L2-NORM 
          0                 1           2             2    2     1       0.2083709012E-02       2    2    1         0.1088753300E+00      0.2238713134E+00
          0                 2           2             2    2     1      -0.2026883113E-03       2    2    1        -0.1088754927E-01      0.2238714477E-01
          0                 3           1             2    2     1       0.1380232014E-04       2    2    1         0.7621286245E-03      0.1567102052E-02

    ------------------------------------------------
       NWT REQUIRED            3 OUTER ITERATIONS 
       AND A TOTAL OF          5 INNER ITERATIONS.
    ------------------------------------------------

 NO OUTPUT CONTROL FOR STRESS PERIOD   39   TIME STEP   30



 STREAM LISTING     PERIOD     39   STEP       30

 LAYER ROW COL. STREAM  RCH.  FLOW INTO     FLOW TO   FLOW OUT OF   OVRLND.     DIRECT     STREAM       STREAM     STREAM     STREAM   STREAMBED  STREAMBED
                SEG.NO.  NO.  STRM. RCH.    AQUIFER    STRM. RCH.    RUNOFF     PRECIP       ET          HEAD       DEPTH      WIDTH   CONDCTNC.   GRADIENT

   1    1    1     1     1    3.2750E+01  2.7790E-01   3.2473E+01  0.000E+00  0.000E+00  0.000E+00  1.09432E+03  1.273E+00  1.445E+01  6.503E-02  1.424E+00
   1    2    2     1     2    3.2473E+01  4.3019E-01   3.2042E+01  0.000E+00  0.000E+00  0.000E+00  1.08933E+03  1.270E+00  1.439E+01  1.007E-01  1.423E+00
   1    3    3     1     3    3.2042E+01  3.6669E-01   3.1676E+01  0.000E+00  0.000E+00  0.000E+00  1.08369E+03  1.267E+00  1.432E+01  8.594E-02  1.422E+00
   1    3    4     1     4    3.1676E+01  3.3752E-01   3.1338E+01  0.000E+00  0.000E+00  0.000E+00  1.07867E+03  1.264E+00  1.426E+01  7.916E-02  1.421E+00
   1    4    5     2     1    2.9338E+01  3.3732E-01   2.9001E+01  0.000E+00  0.000E+00  0.000E+00  1.07326E+03  1.325E+00  1.200E+01  7.800E-02  1.442E+00
   1    5    6     2     2    2.9001E+01  2.5899E-01   2.8742E+01  0.000E+00  0.000E+00  0.000E+00  1.06783E+03  1.317E+00  1.200E+01  6.000E-02  1.439E+00
   1    6    6     2     3    2.8742E+01  2.5857E-01   2.8483E+01  0.000E+00  0.000E+00  0.000E+00  1.06310E+03  1.309E+00  1.200E+01  6.000E-02  1.436E+00
   1    7    6     2     4    2.8483E+01  2.5814E-01   2.8225E+01  0.000E+00  0.000E+00  0.000E+00  1.05838E+03  1.302E+00  1.200E+01  6.000E-02  1.434E+00
   1    8    6     2     5    2.8225E+01  2.5771E-01   2.7967E+01  0.000E+00  0.000E+00  0.000E+00  1.05365E+03  1.295E+00  1.200E+01  6.000E-02  1.432E+00
   1    3    5     3     1    2.0000E+00  2.8252E-01   1.7175E+00  0.000E+00  0.000E+00  0.000E+00  1.07555E+03  1.909E+00  9.636E+00  7.227E-02  1.955E+00
   1    3    6     3     2    1.7175E+00  2.4905E-01   1.4684E+00  0.000E+00  0.000E+00  0.000E+00  1.07264E+03  1.727E+00  8.909E+00  6.682E-02  1.864E+00
   1    3    7     3     3    1.4684E+00  1.9718E-01   1.2712E+00  0.000E+00  0.000E+00  0.000E+00  1.06987E+03  1.555E+00  8.218E+00  5.547E-02  1.777E+00
   1    4    8     3     4    1.2712E+00  2.2567E-01   1.0456E+00  0.000E+00  0.000E+00  0.000E+00  1.06682E+03  1.364E+00  7.455E+00  6.709E-02  1.682E+00
   1    5    8     3     5    1.0456E+00  1.5790E-01   8.8768E-01  0.000E+00  0.000E+00  0.000E+00  1.06362E+03  1.164E+00  6.655E+00  4.991E-02  1.582E+00
   1    6    8     3     6    8.8768E-01  5.5980E-02   8.3170E-01  0.000E+00  0.000E+00  0.000E+00  1.06158E+03  1.036E+00  6.145E+00  1.844E-02  1.518E+00
   1    5   10     4     1    1.0000E+01  9.0919E-02   9.9091E+00  0.000E+00  0.000E+00  0.000E+00  1.07836E+03  6.368E-01  1.000E+01  2.500E-02  1.212E+00
   1    5    9     4     2    9.9091E+00  1.8158E-01   9.7275E+00  0.000E+00  0.000E+00  0.000E+00  1.07154E+03  6.315E-01  1.000E+01  5.000E-02  1.211E+00
   1    6    8     4     3    9.7275E+00  1.2689E-01   9.6006E+00  0.000E+00  0.000E+00  0.000E+00  1.06381E+03  6.256E-01  1.000E+01  3.500E-02  1.209E+00
   1    6    8     5     1    1.0432E+01  2.2686E-01   1.0205E+01  0.000E+00  0.000E+00  0.000E+00  1.05868E+03  6.790E-01  1.542E+01  6.166E-02  1.226E+00
   1    7    7     5     2    1.0205E+01  2.7894E-01   9.9265E+00  0.000E+00  0.000E+00  0.000E+00  1.05417E+03  6.732E-01  1.519E+01  7.594E-02  1.224E+00
   1    8    7     5     3    9.9265E+00  1.9221E-01   9.7343E+00  0.000E+00  0.000E+00  0.000E+00  1.04992E+03  6.676E-01  1.497E+01  5.241E-02  1.223E+00
   1    8    6     5     4    9.7343E+00  1.3577E-01   9.5985E+00  0.000E+00  0.000E+00  0.000E+00  1.04691E+03  6.637E-01  1.482E+01  3.706E-02  1.221E+00
   1    9    6     6     1    9.5985E+00  2.2097E-01   9.3776E+00  0.000E+00  0.000E+00  0.000E+00  1.04341E+03  6.828E-01  1.200E+01  6.000E-02  1.228E+00
   1   10    7     6     2    9.3776E+00  2.2039E-01   9.1572E+00  0.000E+00  0.000E+00  0.000E+00  1.03885E+03  6.732E-01  1.200E+01  6.000E-02  1.224E+00
   1   11    7     6     3    9.1572E+00  2.1981E-01   8.9374E+00  0.000E+00  0.000E+00  0.000E+00  1.03430E+03  6.636E-01  1.200E+01  6.000E-02  1.221E+00
   1   12    7     6     4    8.9374E+00  2.1923E-01   8.7181E+00  0.000E+00  0.000E+00  0.000E+00  1.02974E+03  6.539E-01  1.200E+01  6.000E-02  1.218E+00
   1   13    7     6     5    8.7181E+00 -1.1032E-01   8.8285E+00  0.000E+00  0.000E+00  0.000E+00  1.02656E+03  6.514E-01  1.200E+01  2.400E-01 -1.532E-01
   1   14    9     7     1    1.5000E+02  1.3454E+00   1.4865E+02  0.000E+00  0.000E+00  0.000E+00  1.03987E+03  2.288E+00  5.529E+01  5.593E-01  8.019E-01
   1   13    8     7     2    1.4865E+02  1.8505E+00   1.4680E+02  0.000E+00  0.000E+00  0.000E+00  1.03478E+03  2.279E+00  5.526E+01  6.148E-01  1.003E+00
   1   13    7     7     3    1.4680E+02  1.4907E+00   1.4531E+02  0.000E+00  0.000E+00  0.000E+00  1.02969E+03  2.270E+00  5.522E+01  5.584E-01  8.898E-01
   1   13    6     8     1    1.5414E+02  8.4286E-01   1.5330E+02  0.000E+00  0.000E+00  0.000E+00  1.02472E+03  2.843E+00  4.122E+01  4.201E-01  6.688E-01
   1   13    5     8     2    1.5330E+02  1.1251E-01   1.5319E+02  0.000E+00  0.000E+00  0.000E+00  1.01846E+03  2.840E+00  4.117E+01  4.196E-01  8.938E-02
   1   13    4     8     3    1.5319E+02 -2.6390E+00   1.5583E+02  0.000E+00  0.000E+00  0.000E+00  1.01222E+03  2.848E+00  4.130E+01  4.209E+00 -2.090E-01
   1   13    3     8     4    1.5583E+02 -3.7262E+00   1.5955E+02  0.000E+00  0.000E+00  0.000E+00  1.00600E+03  2.870E+00  4.162E+01  4.241E+00 -2.929E-01
   1   13    2     8     5    1.5955E+02 -2.5924E+00   1.6214E+02  0.000E+00  0.000E+00  0.000E+00  9.99767E+02  2.892E+00  4.193E+01  4.273E+00 -2.022E-01
   1   13    1     8     6    1.6214E+02 -1.9792E+00   1.6412E+02  0.000E+00  0.000E+00  0.000E+00  9.94782E+02  2.907E+00  4.215E+01  2.577E+00 -2.560E-01
   1    8    6     9     1    2.7967E+01  0.0000E+00   2.7967E+01  0.000E+00  0.000E+00  0.000E+00  1.08295E+03  4.200E+00  4.000E+00  0.000E+00  2.400E+00
   1    8    5     9     2    2.7967E+01  0.0000E+00   2.7967E+01  0.000E+00  0.000E+00  0.000E+00  1.08245E+03  4.200E+00  4.000E+00  0.000E+00  2.400E+00





UNSATURATED ZONE PACKAGE VOLUMETRIC BUDGET FOR  TIME STEP    30 STRESS PERIOD   39
  ------------------------------------------------------------------------------



     CUMULATIVE VOLUMES      L**3       RATES FOR THIS TIME STEP      L**3/T
     ------------------                 ------------------------

           IN:                                      IN:
           ---                                      ---
        INFILTRATION =    84772369.1642          INFILTRATION =           0.8475

          OUT:                                     OUT:
          ----                                     ----
              UZF ET =    82940299.7977                UZF ET =           0.7500
        UZF RECHARGE =       73224.0000          UZF RECHARGE =       0.0000E+00

            IN - OUT =     1758845.3665              IN - OUT =       9.7500E-02

          STORAGE:                                 STORAGE:
          --------                                 --------
      STORAGE CHANGE =     1758845.7135        STORAGE CHANGE =       9.7500E-02

 PERCENT DISCREPANCY IS DIFFERENCE BETWEEN IN-OUT MINUS CHANGE IN STORAGE
 DIVIDED BY THE AVERAGE OF IN AND OUT TIMES 100

 PERCENT DISCREPANCY =           0.00     PERCENT DISCREPANCY =           0.00






1
  VOLUMETRIC BUDGET FOR ENTIRE MODEL AT END OF TIME STEP   30, STRESS PERIOD  39
  ------------------------------------------------------------------------------

     CUMULATIVE VOLUMES      L**3       RATES FOR THIS TIME STEP      L**3/T
     ------------------                 ------------------------

           IN:                                      IN:
           ---                                      ---
             STORAGE     =    30743372.0000               STORAGE     =           0.1111
       CONSTANT HEAD     =           0.0000         CONSTANT HEAD     =           0.0000
     HEAD DEP BOUNDS     =    28623138.0000       HEAD DEP BOUNDS     =           0.2864
      STREAM LEAKAGE     =  1169185920.0000        STREAM LEAKAGE     =          11.7069
        UZF RECHARGE     =       73223.9531          UZF RECHARGE     =           0.0000
               GW ET     =           0.0000                 GW ET     =           0.0000
     SURFACE LEAKAGE     =           0.0000       SURFACE LEAKAGE     =           0.0000

                TOTAL IN =  1228625664.0000                  TOTAL IN =          12.1044

          OUT:                                     OUT:
          ----                                     ----
             STORAGE     =    92625392.0000               STORAGE     =           0.7707
       CONSTANT HEAD     =           0.0000         CONSTANT HEAD     =           0.0000
     HEAD DEP BOUNDS     =    28699516.0000       HEAD DEP BOUNDS     =           0.2869
      STREAM LEAKAGE     =  1107318656.0000        STREAM LEAKAGE     =          11.0470
        UZF RECHARGE     =           0.0000          UZF RECHARGE     =           0.0000
               GW ET     =           0.0000                 GW ET     =           0.0000
     SURFACE LEAKAGE     =           0.0000       SURFACE LEAKAGE     =           0.0000

               TOTAL OUT =  1228643584.0000                 TOTAL OUT =          12.1046

                IN - OUT =      -17920.0000                  IN - OUT =      -1.8501E-04

     PERCENT DISCREPANCY =          -0.00         PERCENT DISCREPANCY =          -0.00






         TIME SUMMARY AT END OF TIME STEP   30 IN STRESS PERIOD   39
                    SECONDS     MINUTES      HOURS       DAYS        YEARS
                    -----------------------------------------------------------
   TIME STEP LENGTH  87667.      1461.1      24.352      1.0147     2.77799E-03
 STRESS PERIOD TIME 2.63000E+06  43833.      730.56      30.440     8.33397E-02
         TOTAL TIME 1.00026E+08 1.66710E+06  27785.      1157.7      3.1696    
1
1
                            STRESS PERIOD NO.   40, LENGTH =   2630000.    
                            -----------------------------------------------

                              NUMBER OF TIME STEPS =    30

                               MULTIPLIER FOR DELT =     1.000

                            INITIAL TIME STEP SIZE =   87666.66    

 REUSING NON-PARAMETER GHB CELLS FROM LAST STRESS PERIOD

      2 GHB CELLS

 REUSING STREAM SEGMENT DATA FROM LAST STRESS PERIOD



            AREAL INFILTRATION RATE
 READING ON UNIT   19 WITH FORMAT: (FREE)              

            1           2           3           4           5           6           7           8           9          10
 ........................................................................................................................
   1   1.0000E-10  2.0000E-10   0.000       0.000       0.000       0.000       0.000       0.000       0.000       0.000    
   2   2.0000E-10  1.0000E-10  2.0000E-10   0.000       0.000      8.0000E-10  8.0000E-10  5.0000E-10   0.000       0.000    
   3    0.000      5.0000E-10  1.0000E-10  1.0000E-10  8.0000E-10  8.0000E-10  5.0000E-10  5.0000E-10   0.000       0.000    
   4   8.0000E-10  5.0000E-10  1.0000E-10  1.0000E-10  1.0000E-10  1.0000E-10  1.0000E-10  1.0000E-10  2.0000E-10   0.000    
   5   8.0000E-10  5.0000E-10  1.0000E-10  1.0000E-10  1.0000E-10  1.0000E-10  1.0000E-10  1.0000E-10  1.0000E-10  1.0000E-10
   6   8.0000E-10  5.0000E-10  5.0000E-10  2.0000E-10  2.0000E-10  1.0000E-10  1.0000E-10  1.0000E-10  1.0000E-10  5.0000E-10
   7   8.0000E-10  5.0000E-10  5.0000E-10  2.0000E-10  2.0000E-10  1.0000E-10  1.0000E-10  2.0000E-10  2.0000E-10   0.000    
   8    0.000      5.0000E-10  5.0000E-10  2.0000E-10  2.0000E-10  1.0000E-10  1.0000E-10  2.0000E-10  5.0000E-10   0.000    
   9    0.000      5.0000E-10  5.0000E-10  2.0000E-10  2.0000E-10  1.0000E-10  1.0000E-10  2.0000E-10  5.0000E-10   0.000    
  10    0.000      5.0000E-10  5.0000E-10  2.0000E-10  2.0000E-10  1.0000E-10  1.0000E-10  2.0000E-10  5.0000E-10  8.0000E-10
  11    0.000      1.0000E-10  1.0000E-10  1.0000E-10  1.0000E-10  1.0000E-10  1.0000E-10  2.0000E-10  5.0000E-10   0.000    
  12   1.0000E-10  1.0000E-10  1.0000E-10  1.0000E-10  1.0000E-10  1.0000E-10  1.0000E-10  1.0000E-10  2.0000E-10   0.000    
  13   1.0000E-10  1.0000E-10  2.0000E-10  2.0000E-10  2.0000E-10  2.0000E-10  2.0000E-10  1.0000E-10  1.0000E-10   0.000    
  14    0.000      2.0000E-10  5.0000E-10  5.0000E-10  5.0000E-10  5.0000E-10  5.0000E-10  2.0000E-10  1.0000E-10   0.000    
  15    0.000       0.000      8.0000E-10  8.0000E-10  8.0000E-10  8.0000E-10   0.000       0.000       0.000       0.000    

                  ET RATE =  5.000000E-10

 USING ET EXTINCTION DEPTH FROM PREVIOUS STRESS PERIOD. CURRENT PERIOD IS:      40

 USING EXTINCTION WATER CONTENT FROM PREVIOUS STRESS PERIOD. CURRENT PERIOD IS:      40

 USING AIR ENTRY PRESSURE FROM PREVIOUS STRESS PERIOD. CURRENT PERIOD IS:      40

 USING ROOT PRESSURE HEAD FROM PREVIOUS STRESS PERIOD. CURRENT PERIOD IS:      40

 USING ROOT ACTIVITY FROM PREVIOUS STRESS PERIOD. CURRENT PERIOD IS:      40
 
 SOLVING FOR HEAD 
                                                   Max.-Head-Change                         Max.-Flux-Residual
  Residual-Control   Outer-Iter.   Inner-Iter.     Column Row Layer    Maximum-Head-Change  Column Row Layer    Maximum-Flux-Residual          L2-NORM 
          0                 1           2             2    2     1       0.6209254923E-02       2    2    1         0.3245661246E+00      0.5914551368E+00
          0                 2           2             2    2     1      -0.6039931960E-03       2    2    1        -0.3245674549E-01      0.5914564322E-01
          0                 3           1             2    2     1       0.4112967781E-04       2    2    1         0.2271971910E-02      0.4140195666E-02

    ------------------------------------------------
       NWT REQUIRED            3 OUTER ITERATIONS 
       AND A TOTAL OF          5 INNER ITERATIONS.
    ------------------------------------------------

 NO OUTPUT CONTROL FOR STRESS PERIOD   40   TIME STEP    1
 
 SOLVING FOR HEAD 
                                                   Max.-Head-Change                         Max.-Flux-Residual
  Residual-Control   Outer-Iter.   Inner-Iter.     Column Row Layer    Maximum-Head-Change  Column Row Layer    Maximum-Flux-Residual          L2-NORM 
          0                 1           2             2    2     1       0.6163476483E-02       2    2    1         0.3221560680E+00      0.5844889538E+00
          0                 2           2             2    2     1      -0.5995401632E-03       2    2    1        -0.3221573726E-01      0.5844902117E-01
          0                 3           1             2    2     1       0.4082644350E-04       2    2    1         0.2255101351E-02      0.4091432212E-02

    ------------------------------------------------
       NWT REQUIRED            3 OUTER ITERATIONS 
       AND A TOTAL OF          5 INNER ITERATIONS.
    ------------------------------------------------

 NO OUTPUT CONTROL FOR STRESS PERIOD   40   TIME STEP    2
 
 SOLVING FOR HEAD 
                                                   Max.-Head-Change                         Max.-Flux-Residual
  Residual-Control   Outer-Iter.   Inner-Iter.     Column Row Layer    Maximum-Head-Change  Column Row Layer    Maximum-Flux-Residual          L2-NORM 
          0                 1           2             2    2     1       0.6118390131E-02       2    2    1         0.3197825095E+00      0.5778977423E+00
          0                 2           2             2    2     1      -0.5951544522E-03       2    2    1        -0.3197837889E-01      0.5778989685E-01
          0                 3           1             2    2     1       0.4052779283E-04       2    2    1         0.2238486274E-02      0.4045298522E-02

    ------------------------------------------------
       NWT REQUIRED            3 OUTER ITERATIONS 
       AND A TOTAL OF          5 INNER ITERATIONS.
    ------------------------------------------------

 NO OUTPUT CONTROL FOR STRESS PERIOD   40   TIME STEP    3
 
 SOLVING FOR HEAD 
                                                   Max.-Head-Change                         Max.-Flux-Residual
  Residual-Control   Outer-Iter.   Inner-Iter.     Column Row Layer    Maximum-Head-Change  Column Row Layer    Maximum-Flux-Residual          L2-NORM 
          0                 1           2             2    2     1       0.6073984617E-02       2    2    1         0.3174448350E+00      0.5716598996E+00
          0                 2           2             2    2     1      -0.5908349689E-03       2    2    1        -0.3174460897E-01      0.5716610889E-01
          0                 3           1             2    2     1       0.4023365221E-04       2    2    1         0.2222122382E-02      0.4001628137E-02

    ------------------------------------------------
       NWT REQUIRED            3 OUTER ITERATIONS 
       AND A TOTAL OF          5 INNER ITERATIONS.
    ------------------------------------------------

 NO OUTPUT CONTROL FOR STRESS PERIOD   40   TIME STEP    4
 
 SOLVING FOR HEAD 
                                                   Max.-Head-Change                         Max.-Flux-Residual
  Residual-Control   Outer-Iter.   Inner-Iter.     Column Row Layer    Maximum-Head-Change  Column Row Layer    Maximum-Flux-Residual          L2-NORM 
          0                 1           2             2    2     1       0.6030160638E-02       2    2    1         0.3151378647E+00      0.5657286797E+00
          0                 2           2             2    2     1      -0.5865720543E-03       2    2    1        -0.3151390951E-01      0.5657298386E-01
          0                 3           1             2    2     1       0.3994336416E-04       2    2    1         0.2205973457E-02      0.3960109479E-02

    ------------------------------------------------
       NWT REQUIRED            3 OUTER ITERATIONS 
       AND A TOTAL OF          5 INNER ITERATIONS.
    ------------------------------------------------

 NO OUTPUT CONTROL FOR STRESS PERIOD   40   TIME STEP    5
 
 SOLVING FOR HEAD 
                                                   Max.-Head-Change                         Max.-Flux-Residual
  Residual-Control   Outer-Iter.   Inner-Iter.     Column Row Layer    Maximum-Head-Change  Column Row Layer    Maximum-Flux-Residual          L2-NORM 
          0                 1           2             2    2     1       0.5986995970E-02       2    2    1         0.3128656427E+00      0.5600920895E+00
          0                 2           2             2    2     1      -0.5823732743E-03       2    2    1        -0.3128668499E-01      0.5600932175E-01
          0                 3           1             2    2     1       0.3965744321E-04       2    2    1         0.2190067761E-02      0.3920653206E-02

    ------------------------------------------------
       NWT REQUIRED            3 OUTER ITERATIONS 
       AND A TOTAL OF          5 INNER ITERATIONS.
    ------------------------------------------------

 NO OUTPUT CONTROL FOR STRESS PERIOD   40   TIME STEP    6
 
 SOLVING FOR HEAD 
                                                   Max.-Head-Change                         Max.-Flux-Residual
  Residual-Control   Outer-Iter.   Inner-Iter.     Column Row Layer    Maximum-Head-Change  Column Row Layer    Maximum-Flux-Residual          L2-NORM 
          0                 1           2             2    2     1       0.5944479963E-02       2    2    1         0.3106276051E+00      0.5547333380E+00
          0                 2           2             2    2     1      -0.5782375913E-03       2    2    1        -0.3106287895E-01      0.5547344467E-01
          0                 3           1             2    2     1       0.3937581882E-04       2    2    1         0.2174401350E-02      0.3883161809E-02

    ------------------------------------------------
       NWT REQUIRED            3 OUTER ITERATIONS 
       AND A TOTAL OF          5 INNER ITERATIONS.
    ------------------------------------------------

 NO OUTPUT CONTROL FOR STRESS PERIOD   40   TIME STEP    7
 
 SOLVING FOR HEAD 
                                                   Max.-Head-Change                         Max.-Flux-Residual
  Residual-Control   Outer-Iter.   Inner-Iter.     Column Row Layer    Maximum-Head-Change  Column Row Layer    Maximum-Flux-Residual          L2-NORM 
          0                 1           2             2    2     1       0.5902513834E-02       2    2    1         0.3084186027E+00      0.5496202709E+00
          0                 2           2             2    2     1      -0.5741553975E-03       2    2    1        -0.3084197647E-01      0.5496213420E-01
          0                 3           1             2    2     1       0.3909783730E-04       2    2    1         0.2158938203E-02      0.3847350185E-02

    ------------------------------------------------
       NWT REQUIRED            3 OUTER ITERATIONS 
       AND A TOTAL OF          5 INNER ITERATIONS.
    ------------------------------------------------

 NO OUTPUT CONTROL FOR STRESS PERIOD   40   TIME STEP    8
 
 SOLVING FOR HEAD 
                                                   Max.-Head-Change                         Max.-Flux-Residual
  Residual-Control   Outer-Iter.   Inner-Iter.     Column Row Layer    Maximum-Head-Change  Column Row Layer    Maximum-Flux-Residual          L2-NORM 
          0                 1           2             2    2     1       0.5861175979E-02       2    2    1         0.3062427080E+00      0.5447429305E+00
          0                 2           2             2    2     1      -0.5701343179E-03       2    2    1        -0.3062438480E-01      0.5447439742E-01
          0                 3           1             2    2     1       0.3882401650E-04       2    2    1         0.2143706780E-02      0.3813208498E-02

    ------------------------------------------------
       NWT REQUIRED            3 OUTER ITERATIONS 
       AND A TOTAL OF          5 INNER ITERATIONS.
    ------------------------------------------------

 NO OUTPUT CONTROL FOR STRESS PERIOD   40   TIME STEP    9
 
 SOLVING FOR HEAD 
                                                   Max.-Head-Change                         Max.-Flux-Residual
  Residual-Control   Outer-Iter.   Inner-Iter.     Column Row Layer    Maximum-Head-Change  Column Row Layer    Maximum-Flux-Residual          L2-NORM 
          0                 1           2             2    2     1       0.5820456245E-02       2    2    1         0.3040993884E+00      0.5400781233E+00
          0                 2           2             2    2     1      -0.5661733663E-03       2    2    1        -0.3041005073E-01      0.5400791412E-01
          0                 3           1             2    2     1       0.3855429110E-04       2    2    1         0.2128703434E-02      0.3780554781E-02

    ------------------------------------------------
       NWT REQUIRED            3 OUTER ITERATIONS 
       AND A TOTAL OF          5 INNER ITERATIONS.
    ------------------------------------------------

 NO OUTPUT CONTROL FOR STRESS PERIOD   40   TIME STEP   10
 
 SOLVING FOR HEAD 
                                                   Max.-Head-Change                         Max.-Flux-Residual
  Residual-Control   Outer-Iter.   Inner-Iter.     Column Row Layer    Maximum-Head-Change  Column Row Layer    Maximum-Flux-Residual          L2-NORM 
          0                 1           2             2    2     1       0.5780256421E-02       2    2    1         0.3019835201E+00      0.5356160456E+00
          0                 2           2             2    2     1      -0.5622629875E-03       2    2    1        -0.3019846180E-01      0.5356170390E-01
          0                 3           1             2    2     1       0.3828800858E-04       2    2    1         0.2113892182E-02      0.3749319995E-02

    ------------------------------------------------
       NWT REQUIRED            3 OUTER ITERATIONS 
       AND A TOTAL OF          5 INNER ITERATIONS.
    ------------------------------------------------

 NO OUTPUT CONTROL FOR STRESS PERIOD   40   TIME STEP   11
 
 SOLVING FOR HEAD 
                                                   Max.-Head-Change                         Max.-Flux-Residual
  Residual-Control   Outer-Iter.   Inner-Iter.     Column Row Layer    Maximum-Head-Change  Column Row Layer    Maximum-Flux-Residual          L2-NORM 
          0                 1           2             2    2     1       0.5740655380E-02       2    2    1         0.2998992060E+00      0.5313434269E+00
          0                 2           2             2    2     1      -0.5584108556E-03       2    2    1        -0.2999002837E-01      0.5313443960E-01
          0                 3           1             2    2     1       0.3802569295E-04       2    2    1         0.2099301864E-02      0.3719411713E-02

    ------------------------------------------------
       NWT REQUIRED            3 OUTER ITERATIONS 
       AND A TOTAL OF          5 INNER ITERATIONS.
    ------------------------------------------------

 NO OUTPUT CONTROL FOR STRESS PERIOD   40   TIME STEP   12
 
 SOLVING FOR HEAD 
                                                   Max.-Head-Change                         Max.-Flux-Residual
  Residual-Control   Outer-Iter.   Inner-Iter.     Column Row Layer    Maximum-Head-Change  Column Row Layer    Maximum-Flux-Residual          L2-NORM 
          0                 1           2             2    2     1       0.5701643158E-02       2    2    1         0.2978459382E+00      0.5272453503E+00
          0                 2           2             2    2     1      -0.5546160005E-03       2    2    1        -0.2978469963E-01      0.5272462961E-01
          0                 3           1             2    2     1       0.3776727792E-04       2    2    1         0.2084928868E-02      0.3690724742E-02

    ------------------------------------------------
       NWT REQUIRED            3 OUTER ITERATIONS 
       AND A TOTAL OF          5 INNER ITERATIONS.
    ------------------------------------------------

 NO OUTPUT CONTROL FOR STRESS PERIOD   40   TIME STEP   13
 
 SOLVING FOR HEAD 
                                                   Max.-Head-Change                         Max.-Flux-Residual
  Residual-Control   Outer-Iter.   Inner-Iter.     Column Row Layer    Maximum-Head-Change  Column Row Layer    Maximum-Flux-Residual          L2-NORM 
          0                 1           2             2    2     1       0.5663121999E-02       2    2    1         0.2958186017E+00      0.5233120027E+00
          0                 2           2             2    2     1      -0.5508689127E-03       2    2    1        -0.2958196402E-01      0.5233129266E-01
          0                 3           1             2    2     1       0.3751211550E-04       2    2    1         0.2070737392E-02      0.3663191450E-02

    ------------------------------------------------
       NWT REQUIRED            3 OUTER ITERATIONS 
       AND A TOTAL OF          5 INNER ITERATIONS.
    ------------------------------------------------

 NO OUTPUT CONTROL FOR STRESS PERIOD   40   TIME STEP   14
 
 SOLVING FOR HEAD 
                                                   Max.-Head-Change                         Max.-Flux-Residual
  Residual-Control   Outer-Iter.   Inner-Iter.     Column Row Layer    Maximum-Head-Change  Column Row Layer    Maximum-Flux-Residual          L2-NORM 
          0                 1           2             2    2     1       0.5625171689E-02       2    2    1         0.2938213244E+00      0.5195278899E+00
          0                 2           2             2    2     1      -0.5471773536E-03       2    2    1        -0.2938223439E-01      0.5195287926E-01
          0                 3           1             2    2     1       0.3726073416E-04       2    2    1         0.2056756334E-02      0.3636702760E-02

    ------------------------------------------------
       NWT REQUIRED            3 OUTER ITERATIONS 
       AND A TOTAL OF          5 INNER ITERATIONS.
    ------------------------------------------------

 NO OUTPUT CONTROL FOR STRESS PERIOD   40   TIME STEP   15
 
 SOLVING FOR HEAD 
                                                   Max.-Head-Change                         Max.-Flux-Residual
  Residual-Control   Outer-Iter.   Inner-Iter.     Column Row Layer    Maximum-Head-Change  Column Row Layer    Maximum-Flux-Residual          L2-NORM 
          0                 1           2             2    2     1       0.5587783164E-02       2    2    1         0.2918536450E+00      0.5158931138E+00
          0                 2           2             2    2     1      -0.5435404415E-03       2    2    1        -0.2918546459E-01      0.5158939947E-01
          0                 3           1             2    2     1       0.3701307428E-04       2    2    1         0.2042982457E-02      0.3611258713E-02

    ------------------------------------------------
       NWT REQUIRED            3 OUTER ITERATIONS 
       AND A TOTAL OF          5 INNER ITERATIONS.
    ------------------------------------------------

 NO OUTPUT CONTROL FOR STRESS PERIOD   40   TIME STEP   16
 
 SOLVING FOR HEAD 
                                                   Max.-Head-Change                         Max.-Flux-Residual
  Residual-Control   Outer-Iter.   Inner-Iter.     Column Row Layer    Maximum-Head-Change  Column Row Layer    Maximum-Flux-Residual          L2-NORM 
          0                 1           2             2    2     1       0.5550946688E-02       2    2    1         0.2899150935E+00      0.5123885932E+00
          0                 2           2             2    2     1      -0.5399572293E-03       2    2    1        -0.2899160763E-01      0.5123894534E-01
          0                 3           1             2    2     1       0.3676907100E-04       2    2    1         0.2029412483E-02      0.3586726993E-02

    ------------------------------------------------
       NWT REQUIRED            3 OUTER ITERATIONS 
       AND A TOTAL OF          5 INNER ITERATIONS.
    ------------------------------------------------

 NO OUTPUT CONTROL FOR STRESS PERIOD   40   TIME STEP   17
 
 SOLVING FOR HEAD 
                                                   Max.-Head-Change                         Max.-Flux-Residual
  Residual-Control   Outer-Iter.   Inner-Iter.     Column Row Layer    Maximum-Head-Change  Column Row Layer    Maximum-Flux-Residual          L2-NORM 
          0                 1           2             2    2     1       0.5514565568E-02       2    2    1         0.2880005661E+00      0.5090186288E+00
          0                 2           2             2    2     1      -0.5364183122E-03       2    2    1        -0.2880015316E-01      0.5090194693E-01
          0                 3           1             2    2     1       0.3652808412E-04       2    2    1         0.2016010671E-02      0.3563137142E-02

    ------------------------------------------------
       NWT REQUIRED            3 OUTER ITERATIONS 
       AND A TOTAL OF          5 INNER ITERATIONS.
    ------------------------------------------------

 NO OUTPUT CONTROL FOR STRESS PERIOD   40   TIME STEP   18
 
 SOLVING FOR HEAD 
                                                   Max.-Head-Change                         Max.-Flux-Residual
  Residual-Control   Outer-Iter.   Inner-Iter.     Column Row Layer    Maximum-Head-Change  Column Row Layer    Maximum-Flux-Residual          L2-NORM 
          0                 1           2             2    2     1       0.5478719805E-02       2    2    1         0.2861142472E+00      0.5057624767E+00
          0                 2           2             2    2     1      -0.5329314705E-03       2    2    1        -0.2861151953E-01      0.5057633018E-01
          0                 3           1             2    2     1       0.3629064332E-04       2    2    1         0.2002806333E-02      0.3540349412E-02

    ------------------------------------------------
       NWT REQUIRED            3 OUTER ITERATIONS 
       AND A TOTAL OF          5 INNER ITERATIONS.
    ------------------------------------------------

 NO OUTPUT CONTROL FOR STRESS PERIOD   40   TIME STEP   19
 
 SOLVING FOR HEAD 
                                                   Max.-Head-Change                         Max.-Flux-Residual
  Residual-Control   Outer-Iter.   Inner-Iter.     Column Row Layer    Maximum-Head-Change  Column Row Layer    Maximum-Flux-Residual          L2-NORM 
          0                 1           2             2    2     1       0.5443400183E-02       2    2    1         0.2842556860E+00      0.5026196530E+00
          0                 2           2             2    2     1      -0.5294958088E-03       2    2    1        -0.2842566171E-01      0.5026204566E-01
          0                 3           1             2    2     1       0.3605668824E-04       2    2    1         0.1989796310E-02      0.3518343962E-02

    ------------------------------------------------
       NWT REQUIRED            3 OUTER ITERATIONS 
       AND A TOTAL OF          5 INNER ITERATIONS.
    ------------------------------------------------

 NO OUTPUT CONTROL FOR STRESS PERIOD   40   TIME STEP   20
 
 SOLVING FOR HEAD 
                                                   Max.-Head-Change                         Max.-Flux-Residual
  Residual-Control   Outer-Iter.   Inner-Iter.     Column Row Layer    Maximum-Head-Change  Column Row Layer    Maximum-Flux-Residual          L2-NORM 
          0                 1           2             2    2     1       0.5408598796E-02       2    2    1         0.2824244047E+00      0.4995938126E+00
          0                 2           2             2    2     1      -0.5261105579E-03       2    2    1        -0.2824253195E-01      0.4995945990E-01
          0                 3           1             2    2     1       0.3582616492E-04       2    2    1         0.1976977221E-02      0.3497163131E-02

    ------------------------------------------------
       NWT REQUIRED            3 OUTER ITERATIONS 
       AND A TOTAL OF          5 INNER ITERATIONS.
    ------------------------------------------------

 NO OUTPUT CONTROL FOR STRESS PERIOD   40   TIME STEP   21
 
 SOLVING FOR HEAD 
                                                   Max.-Head-Change                         Max.-Flux-Residual
  Residual-Control   Outer-Iter.   Inner-Iter.     Column Row Layer    Maximum-Head-Change  Column Row Layer    Maximum-Flux-Residual          L2-NORM 
          0                 1           2             2    2     1       0.5374219100E-02       2    2    1         0.2806153935E+00      0.4966641490E+00
          0                 2           2             2    2     1      -0.5227663267E-03       2    2    1        -0.2806162922E-01      0.4966649172E-01
          0                 3           1             2    2     1       0.3559843554E-04       2    2    1         0.1964314044E-02      0.3476655178E-02

    ------------------------------------------------
       NWT REQUIRED            3 OUTER ITERATIONS 
       AND A TOTAL OF          5 INNER ITERATIONS.
    ------------------------------------------------

 NO OUTPUT CONTROL FOR STRESS PERIOD   40   TIME STEP   22
 
 SOLVING FOR HEAD 
                                                   Max.-Head-Change                         Max.-Flux-Residual
  Residual-Control   Outer-Iter.   Inner-Iter.     Column Row Layer    Maximum-Head-Change  Column Row Layer    Maximum-Flux-Residual          L2-NORM 
          0                 1           2             2    2     1       0.5340341715E-02       2    2    1         0.2788328461E+00      0.4938302282E+00
          0                 2           2             2    2     1      -0.5194709568E-03       2    2    1        -0.2788337288E-01      0.4938309794E-01
          0                 3           1             2    2     1       0.3537403330E-04       2    2    1         0.1951836110E-02      0.3456817922E-02

    ------------------------------------------------
       NWT REQUIRED            3 OUTER ITERATIONS 
       AND A TOTAL OF          5 INNER ITERATIONS.
    ------------------------------------------------

 NO OUTPUT CONTROL FOR STRESS PERIOD   40   TIME STEP   23
 
 SOLVING FOR HEAD 
                                                   Max.-Head-Change                         Max.-Flux-Residual
  Residual-Control   Outer-Iter.   Inner-Iter.     Column Row Layer    Maximum-Head-Change  Column Row Layer    Maximum-Flux-Residual          L2-NORM 
          0                 1           2             2    2     1       0.5306958422E-02       2    2    1         0.2770763430E+00      0.4910951284E+00
          0                 2           2             2    2     1      -0.5162236498E-03       2    2    1        -0.2770772106E-01      0.4910958631E-01
          0                 3           1             2    2     1       0.3515290402E-04       2    2    1         0.1939540490E-02      0.3437671859E-02

    ------------------------------------------------
       NWT REQUIRED            3 OUTER ITERATIONS 
       AND A TOTAL OF          5 INNER ITERATIONS.
    ------------------------------------------------

 NO OUTPUT CONTROL FOR STRESS PERIOD   40   TIME STEP   24
 
 SOLVING FOR HEAD 
                                                   Max.-Head-Change                         Max.-Flux-Residual
  Residual-Control   Outer-Iter.   Inner-Iter.     Column Row Layer    Maximum-Head-Change  Column Row Layer    Maximum-Flux-Residual          L2-NORM 
          0                 1           2             2    2     1       0.5273973459E-02       2    2    1         0.2753408578E+00      0.4884379650E+00
          0                 2           2             2    2     1      -0.5130150896E-03       2    2    1        -0.2753417103E-01      0.4884386828E-01
          0                 3           1             2    2     1       0.3493441317E-04       2    2    1         0.1927391997E-02      0.3419071716E-02

    ------------------------------------------------
       NWT REQUIRED            3 OUTER ITERATIONS 
       AND A TOTAL OF          5 INNER ITERATIONS.
    ------------------------------------------------

 NO OUTPUT CONTROL FOR STRESS PERIOD   40   TIME STEP   25
 
 SOLVING FOR HEAD 
                                                   Max.-Head-Change                         Max.-Flux-Residual
  Residual-Control   Outer-Iter.   Inner-Iter.     Column Row Layer    Maximum-Head-Change  Column Row Layer    Maximum-Flux-Residual          L2-NORM 
          0                 1           2             2    2     1       0.5241555515E-02       2    2    1         0.2736352260E+00      0.4858743424E+00
          0                 2           2             2    2     1      -0.5098616857E-03       2    2    1        -0.2736360641E-01      0.4858750454E-01
          0                 3           1             2    2     1       0.3471967809E-04       2    2    1         0.1915452477E-02      0.3401126428E-02

    ------------------------------------------------
       NWT REQUIRED            3 OUTER ITERATIONS 
       AND A TOTAL OF          5 INNER ITERATIONS.
    ------------------------------------------------

 NO OUTPUT CONTROL FOR STRESS PERIOD   40   TIME STEP   26
 
 SOLVING FOR HEAD 
                                                   Max.-Head-Change                         Max.-Flux-Residual
  Residual-Control   Outer-Iter.   Inner-Iter.     Column Row Layer    Maximum-Head-Change  Column Row Layer    Maximum-Flux-Residual          L2-NORM 
          0                 1           2             2    2     1       0.5209520011E-02       2    2    1         0.2719497927E+00      0.4833826763E+00
          0                 2           2             2    2     1      -0.5067454830E-03       2    2    1        -0.2719506163E-01      0.4833833661E-01
          0                 3           1             2    2     1       0.3450747660E-04       2    2    1         0.1903654351E-02      0.3383684662E-02

    ------------------------------------------------
       NWT REQUIRED            3 OUTER ITERATIONS 
       AND A TOTAL OF          5 INNER ITERATIONS.
    ------------------------------------------------

 NO OUTPUT CONTROL FOR STRESS PERIOD   40   TIME STEP   27
 
 SOLVING FOR HEAD 
                                                   Max.-Head-Change                         Max.-Flux-Residual
  Residual-Control   Outer-Iter.   Inner-Iter.     Column Row Layer    Maximum-Head-Change  Column Row Layer    Maximum-Flux-Residual          L2-NORM 
          0                 1           2             2    2     1       0.5177947938E-02       2    2    1         0.2702887889E+00      0.4809690134E+00
          0                 2           2             2    2     1      -0.5036743599E-03       2    2    1        -0.2702895985E-01      0.4809696879E-01
          0                 3           1             2    2     1       0.3429834476E-04       2    2    1         0.1892027237E-02      0.3366788660E-02

    ------------------------------------------------
       NWT REQUIRED            3 OUTER ITERATIONS 
       AND A TOTAL OF          5 INNER ITERATIONS.
    ------------------------------------------------

 NO OUTPUT CONTROL FOR STRESS PERIOD   40   TIME STEP   28
 
 SOLVING FOR HEAD 
                                                   Max.-Head-Change                         Max.-Flux-Residual
  Residual-Control   Outer-Iter.   Inner-Iter.     Column Row Layer    Maximum-Head-Change  Column Row Layer    Maximum-Flux-Residual          L2-NORM 
          0                 1           2             2    2     1       0.5146744459E-02       2    2    1         0.2686472126E+00      0.4786241321E+00
          0                 2           2             2    2     1      -0.5006390914E-03       2    2    1        -0.2686480083E-01      0.4786247931E-01
          0                 3           1             2    2     1       0.3409165468E-04       2    2    1         0.1880536123E-02      0.3350374396E-02

    ------------------------------------------------
       NWT REQUIRED            3 OUTER ITERATIONS 
       AND A TOTAL OF          5 INNER ITERATIONS.
    ------------------------------------------------

 NO OUTPUT CONTROL FOR STRESS PERIOD   40   TIME STEP   29
 
 SOLVING FOR HEAD 
                                                   Max.-Head-Change                         Max.-Flux-Residual
  Residual-Control   Outer-Iter.   Inner-Iter.     Column Row Layer    Maximum-Head-Change  Column Row Layer    Maximum-Flux-Residual          L2-NORM 
          0                 1           2             2    2     1       0.5115990835E-02       2    2    1         0.2670293483E+00      0.4763519311E+00
          0                 2           2             2    2     1      -0.4976475818E-03       2    2    1        -0.2670301305E-01      0.4763529702E-01
          0                 3           1             2    2     1       0.3388794408E-04       2    2    1         0.1869210982E-02      0.3334471742E-02

    ------------------------------------------------
       NWT REQUIRED            3 OUTER ITERATIONS 
       AND A TOTAL OF          5 INNER ITERATIONS.
    ------------------------------------------------

 NO OUTPUT CONTROL FOR STRESS PERIOD   40   TIME STEP   30



 STREAM LISTING     PERIOD     40   STEP       30

 LAYER ROW COL. STREAM  RCH.  FLOW INTO     FLOW TO   FLOW OUT OF   OVRLND.     DIRECT     STREAM       STREAM     STREAM     STREAM   STREAMBED  STREAMBED
                SEG.NO.  NO.  STRM. RCH.    AQUIFER    STRM. RCH.    RUNOFF     PRECIP       ET          HEAD       DEPTH      WIDTH   CONDCTNC.   GRADIENT

   1    1    1     1     1    7.3498E+01  4.1744E-01   7.3080E+01  0.000E+00  0.000E+00  0.000E+00  1.09473E+03  1.681E+00  1.982E+01  8.917E-02  1.560E+00
   1    2    2     1     2    7.3080E+01  6.4665E-01   7.2434E+01  0.000E+00  0.000E+00  0.000E+00  1.08973E+03  1.675E+00  1.976E+01  1.383E-01  1.558E+00
   1    3    3     1     3    7.2434E+01  5.5165E-01   7.1882E+01  0.000E+00  0.000E+00  0.000E+00  1.08409E+03  1.669E+00  1.969E+01  1.182E-01  1.556E+00
   1    3    4     1     4    7.1882E+01  5.0813E-01   7.1374E+01  0.000E+00  0.000E+00  0.000E+00  1.07907E+03  1.663E+00  1.963E+01  1.090E-01  1.554E+00
   1    4    5     2     1    6.9374E+01  4.0746E-01   6.8966E+01  0.000E+00  0.000E+00  0.000E+00  1.07416E+03  2.224E+00  1.200E+01  7.800E-02  1.741E+00
   1    5    6     2     2    6.8966E+01  3.1301E-01   6.8653E+01  0.000E+00  0.000E+00  0.000E+00  1.06873E+03  2.217E+00  1.200E+01  6.000E-02  1.739E+00
   1    6    6     2     3    6.8653E+01  3.1265E-01   6.8341E+01  0.000E+00  0.000E+00  0.000E+00  1.06400E+03  2.211E+00  1.200E+01  6.000E-02  1.737E+00
   1    7    6     2     4    6.8341E+01  3.1228E-01   6.8028E+01  0.000E+00  0.000E+00  0.000E+00  1.05928E+03  2.205E+00  1.200E+01  6.000E-02  1.735E+00
   1    8    6     2     5    6.8028E+01  3.1192E-01   6.7717E+01  0.000E+00  0.000E+00  0.000E+00  1.05456E+03  2.199E+00  1.200E+01  6.000E-02  1.733E+00
   1    3    5     3     1    2.0000E+00  2.8252E-01   1.7175E+00  0.000E+00  0.000E+00  0.000E+00  1.07555E+03  1.909E+00  9.636E+00  7.227E-02  1.955E+00
   1    3    6     3     2    1.7175E+00  2.4905E-01   1.4684E+00  0.000E+00  0.000E+00  0.000E+00  1.07264E+03  1.727E+00  8.909E+00  6.682E-02  1.864E+00
   1    3    7     3     3    1.4684E+00  1.9718E-01   1.2712E+00  0.000E+00  0.000E+00  0.000E+00  1.06987E+03  1.555E+00  8.218E+00  5.547E-02  1.777E+00
   1    4    8     3     4    1.2712E+00  2.2567E-01   1.0456E+00  0.000E+00  0.000E+00  0.000E+00  1.06682E+03  1.364E+00  7.455E+00  6.709E-02  1.682E+00
   1    5    8     3     5    1.0456E+00  1.5790E-01   8.8768E-01  0.000E+00  0.000E+00  0.000E+00  1.06362E+03  1.164E+00  6.655E+00  4.991E-02  1.582E+00
   1    6    8     3     6    8.8768E-01  5.5980E-02   8.3170E-01  0.000E+00  0.000E+00  0.000E+00  1.06158E+03  1.036E+00  6.145E+00  1.844E-02  1.518E+00
   1    5   10     4     1    1.0000E+01  9.0919E-02   9.9091E+00  0.000E+00  0.000E+00  0.000E+00  1.07836E+03  6.368E-01  1.000E+01  2.500E-02  1.212E+00
   1    5    9     4     2    9.9091E+00  1.8158E-01   9.7275E+00  0.000E+00  0.000E+00  0.000E+00  1.07154E+03  6.315E-01  1.000E+01  5.000E-02  1.211E+00
   1    6    8     4     3    9.7275E+00  1.2689E-01   9.6006E+00  0.000E+00  0.000E+00  0.000E+00  1.06381E+03  6.256E-01  1.000E+01  3.500E-02  1.209E+00
   1    6    8     5     1    1.0432E+01  2.2686E-01   1.0205E+01  0.000E+00  0.000E+00  0.000E+00  1.05868E+03  6.790E-01  1.542E+01  6.166E-02  1.226E+00
   1    7    7     5     2    1.0205E+01  2.7894E-01   9.9265E+00  0.000E+00  0.000E+00  0.000E+00  1.05417E+03  6.732E-01  1.519E+01  7.594E-02  1.224E+00
   1    8    7     5     3    9.9265E+00  1.9221E-01   9.7343E+00  0.000E+00  0.000E+00  0.000E+00  1.04992E+03  6.676E-01  1.497E+01  5.241E-02  1.223E+00
   1    8    6     5     4    9.7343E+00  1.3577E-01   9.5985E+00  0.000E+00  0.000E+00  0.000E+00  1.04691E+03  6.637E-01  1.482E+01  3.706E-02  1.221E+00
   1    9    6     6     1    9.5985E+00  2.2097E-01   9.3776E+00  0.000E+00  0.000E+00  0.000E+00  1.04341E+03  6.828E-01  1.200E+01  6.000E-02  1.228E+00
   1   10    7     6     2    9.3776E+00  2.2039E-01   9.1572E+00  0.000E+00  0.000E+00  0.000E+00  1.03885E+03  6.732E-01  1.200E+01  6.000E-02  1.224E+00
   1   11    7     6     3    9.1572E+00  2.1981E-01   8.9374E+00  0.000E+00  0.000E+00  0.000E+00  1.03430E+03  6.636E-01  1.200E+01  6.000E-02  1.221E+00
   1   12    7     6     4    8.9374E+00  2.1923E-01   8.7181E+00  0.000E+00  0.000E+00  0.000E+00  1.02974E+03  6.539E-01  1.200E+01  6.000E-02  1.218E+00
   1   13    7     6     5    8.7181E+00 -1.1033E-01   8.8285E+00  0.000E+00  0.000E+00  0.000E+00  1.02656E+03  6.514E-01  1.200E+01  2.400E-01 -1.532E-01
   1   14    9     7     1    1.5000E+02  1.3455E+00   1.4865E+02  0.000E+00  0.000E+00  0.000E+00  1.03987E+03  2.288E+00  5.529E+01  5.593E-01  8.019E-01
   1   13    8     7     2    1.4865E+02  1.8506E+00   1.4680E+02  0.000E+00  0.000E+00  0.000E+00  1.03478E+03  2.279E+00  5.526E+01  6.148E-01  1.003E+00
   1   13    7     7     3    1.4680E+02  1.4907E+00   1.4531E+02  0.000E+00  0.000E+00  0.000E+00  1.02969E+03  2.270E+00  5.522E+01  5.584E-01  8.898E-01
   1   13    6     8     1    1.5414E+02  8.4285E-01   1.5330E+02  0.000E+00  0.000E+00  0.000E+00  1.02472E+03  2.843E+00  4.122E+01  4.201E-01  6.688E-01
   1   13    5     8     2    1.5330E+02  1.1249E-01   1.5319E+02  0.000E+00  0.000E+00  0.000E+00  1.01846E+03  2.840E+00  4.117E+01  4.196E-01  8.937E-02
   1   13    4     8     3    1.5319E+02 -2.6390E+00   1.5583E+02  0.000E+00  0.000E+00  0.000E+00  1.01222E+03  2.848E+00  4.130E+01  4.209E+00 -2.090E-01
   1   13    3     8     4    1.5583E+02 -3.7261E+00   1.5955E+02  0.000E+00  0.000E+00  0.000E+00  1.00600E+03  2.870E+00  4.162E+01  4.241E+00 -2.929E-01
   1   13    2     8     5    1.5955E+02 -2.5923E+00   1.6214E+02  0.000E+00  0.000E+00  0.000E+00  9.99767E+02  2.892E+00  4.193E+01  4.273E+00 -2.022E-01
   1   13    1     8     6    1.6214E+02 -1.9791E+00   1.6412E+02  0.000E+00  0.000E+00  0.000E+00  9.94782E+02  2.907E+00  4.215E+01  2.577E+00 -2.560E-01
   1    8    6     9     1    6.7717E+01  0.0000E+00   6.7717E+01  0.000E+00  0.000E+00  0.000E+00  1.08589E+03  7.140E+00  4.000E+00  0.000E+00  3.380E+00
   1    8    5     9     2    6.7717E+01  0.0000E+00   6.7717E+01  0.000E+00  0.000E+00  0.000E+00  1.08539E+03  7.140E+00  4.000E+00  0.000E+00  3.380E+00





UNSATURATED ZONE PACKAGE VOLUMETRIC BUDGET FOR  TIME STEP    30 STRESS PERIOD   40
  ------------------------------------------------------------------------------



     CUMULATIVE VOLUMES      L**3       RATES FOR THIS TIME STEP      L**3/T
     ------------------                 ------------------------

           IN:                                      IN:
           ---                                      ---
        INFILTRATION =    87001294.0369          INFILTRATION =           0.8475

          OUT:                                     OUT:
          ----                                     ----
              UZF ET =    84912799.6755                UZF ET =           0.7500
        UZF RECHARGE =       73224.0000          UZF RECHARGE =       0.0000E+00

            IN - OUT =     2015270.3614              IN - OUT =       9.7500E-02

          STORAGE:                                 STORAGE:
          --------                                 --------
      STORAGE CHANGE =     2015270.7286        STORAGE CHANGE =       9.7500E-02

 PERCENT DISCREPANCY IS DIFFERENCE BETWEEN IN-OUT MINUS CHANGE IN STORAGE
 DIVIDED BY THE AVERAGE OF IN AND OUT TIMES 100

 PERCENT DISCREPANCY =           0.00     PERCENT DISCREPANCY =           0.00






1
  VOLUMETRIC BUDGET FOR ENTIRE MODEL AT END OF TIME STEP   30, STRESS PERIOD  40
  ------------------------------------------------------------------------------

     CUMULATIVE VOLUMES      L**3       RATES FOR THIS TIME STEP      L**3/T
     ------------------                 ------------------------

           IN:                                      IN:
           ---                                      ---
             STORAGE     =    30954768.0000               STORAGE     =       7.7706E-02
       CONSTANT HEAD     =           0.0000         CONSTANT HEAD     =           0.0000
     HEAD DEP BOUNDS     =    29376422.0000       HEAD DEP BOUNDS     =           0.2864
      STREAM LEAKAGE     =  1202601600.0000        STREAM LEAKAGE     =          12.7052
        UZF RECHARGE     =       73223.9531          UZF RECHARGE     =           0.0000
               GW ET     =           0.0000                 GW ET     =           0.0000
     SURFACE LEAKAGE     =           0.0000       SURFACE LEAKAGE     =           0.0000

                TOTAL IN =  1263005952.0000                  TOTAL IN =          13.0693

          OUT:                                     OUT:
          ----                                     ----
             STORAGE     =    97197760.0000               STORAGE     =           1.7359
       CONSTANT HEAD     =           0.0000         CONSTANT HEAD     =           0.0000
     HEAD DEP BOUNDS     =    29454076.0000       HEAD DEP BOUNDS     =           0.2869
      STREAM LEAKAGE     =  1136372096.0000        STREAM LEAKAGE     =          11.0470
        UZF RECHARGE     =           0.0000          UZF RECHARGE     =           0.0000
               GW ET     =           0.0000                 GW ET     =           0.0000
     SURFACE LEAKAGE     =           0.0000       SURFACE LEAKAGE     =           0.0000

               TOTAL OUT =  1263023872.0000                 TOTAL OUT =          13.0698

                IN - OUT =      -17920.0000                  IN - OUT =      -4.7112E-04

     PERCENT DISCREPANCY =          -0.00         PERCENT DISCREPANCY =          -0.00






         TIME SUMMARY AT END OF TIME STEP   30 IN STRESS PERIOD   40
                    SECONDS     MINUTES      HOURS       DAYS        YEARS
                    -----------------------------------------------------------
   TIME STEP LENGTH  87667.      1461.1      24.352      1.0147     2.77799E-03
 STRESS PERIOD TIME 2.63000E+06  43833.      730.56      30.440     8.33397E-02
         TOTAL TIME 1.02656E+08 1.71093E+06  28515.      1188.1      3.2530    
1
1
                            STRESS PERIOD NO.   41, LENGTH =   2630000.    
                            -----------------------------------------------

                              NUMBER OF TIME STEPS =    30

                               MULTIPLIER FOR DELT =     1.000

                            INITIAL TIME STEP SIZE =   87666.66    

 REUSING NON-PARAMETER GHB CELLS FROM LAST STRESS PERIOD

      2 GHB CELLS

 REUSING STREAM SEGMENT DATA FROM LAST STRESS PERIOD



            AREAL INFILTRATION RATE
 READING ON UNIT   19 WITH FORMAT: (FREE)              

            1           2           3           4           5           6           7           8           9          10
 ........................................................................................................................
   1   1.0000E-10  2.0000E-10   0.000       0.000       0.000       0.000       0.000       0.000       0.000       0.000    
   2   2.0000E-10  1.0000E-10  2.0000E-10   0.000       0.000      8.0000E-10  8.0000E-10  5.0000E-10   0.000       0.000    
   3    0.000      5.0000E-10  1.0000E-10  1.0000E-10  8.0000E-10  8.0000E-10  5.0000E-10  5.0000E-10   0.000       0.000    
   4   8.0000E-10  5.0000E-10  1.0000E-10  1.0000E-10  1.0000E-10  1.0000E-10  1.0000E-10  1.0000E-10  2.0000E-10   0.000    
   5   8.0000E-10  5.0000E-10  1.0000E-10  1.0000E-10  1.0000E-10  1.0000E-10  1.0000E-10  1.0000E-10  1.0000E-10  1.0000E-10
   6   8.0000E-10  5.0000E-10  5.0000E-10  2.0000E-10  2.0000E-10  1.0000E-10  1.0000E-10  1.0000E-10  1.0000E-10  5.0000E-10
   7   8.0000E-10  5.0000E-10  5.0000E-10  2.0000E-10  2.0000E-10  1.0000E-10  1.0000E-10  2.0000E-10  2.0000E-10   0.000    
   8    0.000      5.0000E-10  5.0000E-10  2.0000E-10  2.0000E-10  1.0000E-10  1.0000E-10  2.0000E-10  5.0000E-10   0.000    
   9    0.000      5.0000E-10  5.0000E-10  2.0000E-10  2.0000E-10  1.0000E-10  1.0000E-10  2.0000E-10  5.0000E-10   0.000    
  10    0.000      5.0000E-10  5.0000E-10  2.0000E-10  2.0000E-10  1.0000E-10  1.0000E-10  2.0000E-10  5.0000E-10  8.0000E-10
  11    0.000      1.0000E-10  1.0000E-10  1.0000E-10  1.0000E-10  1.0000E-10  1.0000E-10  2.0000E-10  5.0000E-10   0.000    
  12   1.0000E-10  1.0000E-10  1.0000E-10  1.0000E-10  1.0000E-10  1.0000E-10  1.0000E-10  1.0000E-10  2.0000E-10   0.000    
  13   1.0000E-10  1.0000E-10  2.0000E-10  2.0000E-10  2.0000E-10  2.0000E-10  2.0000E-10  1.0000E-10  1.0000E-10   0.000    
  14    0.000      2.0000E-10  5.0000E-10  5.0000E-10  5.0000E-10  5.0000E-10  5.0000E-10  2.0000E-10  1.0000E-10   0.000    
  15    0.000       0.000      8.0000E-10  8.0000E-10  8.0000E-10  8.0000E-10   0.000       0.000       0.000       0.000    

                  ET RATE =  2.500000E-08

 USING ET EXTINCTION DEPTH FROM PREVIOUS STRESS PERIOD. CURRENT PERIOD IS:      41

 USING EXTINCTION WATER CONTENT FROM PREVIOUS STRESS PERIOD. CURRENT PERIOD IS:      41

 USING AIR ENTRY PRESSURE FROM PREVIOUS STRESS PERIOD. CURRENT PERIOD IS:      41

 USING ROOT PRESSURE HEAD FROM PREVIOUS STRESS PERIOD. CURRENT PERIOD IS:      41

 USING ROOT ACTIVITY FROM PREVIOUS STRESS PERIOD. CURRENT PERIOD IS:      41
 
 SOLVING FOR HEAD 
                                                   Max.-Head-Change                         Max.-Flux-Residual
  Residual-Control   Outer-Iter.   Inner-Iter.     Column Row Layer    Maximum-Head-Change  Column Row Layer    Maximum-Flux-Residual          L2-NORM 
          0                 1           2             2    2     1       0.5085767687E-02       2    2    1         0.2654394095E+00      0.4741456922E+00
          0                 2           2             2    2     1      -0.4947076740E-03       2    2    1        -0.2654401788E-01      0.4741463267E-01
          0                 3           1             2    2     1       0.3368774736E-04       2    2    1         0.1858081332E-02      0.3319025334E-02

    ------------------------------------------------
       NWT REQUIRED            3 OUTER ITERATIONS 
       AND A TOTAL OF          5 INNER ITERATIONS.
    ------------------------------------------------

 NO OUTPUT CONTROL FOR STRESS PERIOD   41   TIME STEP    1
 
 SOLVING FOR HEAD 
                                                   Max.-Head-Change                         Max.-Flux-Residual
  Residual-Control   Outer-Iter.   Inner-Iter.     Column Row Layer    Maximum-Head-Change  Column Row Layer    Maximum-Flux-Residual          L2-NORM 
          0                 1           2             2    2     1       0.5055803432E-02       2    2    1         0.2638631717E+00      0.4720032182E+00
          0                 2           2             2    2     1      -0.4917929495E-03       2    2    1        -0.2638639281E-01      0.4720038384E-01
          0                 3           1             2    2     1       0.3348926535E-04       2    2    1         0.1847047572E-02      0.3304027653E-02

    ------------------------------------------------
       NWT REQUIRED            3 OUTER ITERATIONS 
       AND A TOTAL OF          5 INNER ITERATIONS.
    ------------------------------------------------

 NO OUTPUT CONTROL FOR STRESS PERIOD   41   TIME STEP    2
 
 SOLVING FOR HEAD 
                                                   Max.-Head-Change                         Max.-Flux-Residual
  Residual-Control   Outer-Iter.   Inner-Iter.     Column Row Layer    Maximum-Head-Change  Column Row Layer    Maximum-Flux-Residual          L2-NORM 
          0                 1           2             2    2     1       0.5026356085E-02       2    2    1         0.2623141611E+00      0.4699253805E+00
          0                 2           2             2    2     1      -0.4889285065E-03       2    2    1        -0.2623149047E-01      0.4699259911E-01
          0                 3           1             2    2     1       0.3329420799E-04       2    2    1         0.1836204427E-02      0.3289483650E-02

    ------------------------------------------------
       NWT REQUIRED            3 OUTER ITERATIONS 
       AND A TOTAL OF          5 INNER ITERATIONS.
    ------------------------------------------------

 NO OUTPUT CONTROL FOR STRESS PERIOD   41   TIME STEP    3
 
 SOLVING FOR HEAD 
                                                   Max.-Head-Change                         Max.-Flux-Residual
  Residual-Control   Outer-Iter.   Inner-Iter.     Column Row Layer    Maximum-Head-Change  Column Row Layer    Maximum-Flux-Residual          L2-NORM 
          0                 1           2             2    2     1       0.4875455525E-02       2    2    1         0.2544152433E+00      0.4576127841E+00
          0                 2           2             2    2     1      -0.4742499223E-03       2    2    1        -0.2544159377E-01      0.4576133454E-01
          0                 3           1             2    2     1       0.3229465109E-04       2    2    1         0.1780911665E-02      0.3203294373E-02

    ------------------------------------------------
       NWT REQUIRED            3 OUTER ITERATIONS 
       AND A TOTAL OF          5 INNER ITERATIONS.
    ------------------------------------------------

 NO OUTPUT CONTROL FOR STRESS PERIOD   41   TIME STEP    4
 
 SOLVING FOR HEAD 
                                                   Max.-Head-Change                         Max.-Flux-Residual
  Residual-Control   Outer-Iter.   Inner-Iter.     Column Row Layer    Maximum-Head-Change  Column Row Layer    Maximum-Flux-Residual          L2-NORM 
          0                 1           2             1    1     1       0.3336323825E-02       1    1    1         0.1731764751E+00      0.3246042336E+00
          0                 2           2             1    1     1      -0.3245336116E-03       1    1    1        -0.1731766611E-01      0.3246044357E-01
          0                 3           1             1    1     1       0.2209953289E-04       1    1    1         0.1212236973E-02      0.2272232444E-02

    ------------------------------------------------
       NWT REQUIRED            3 OUTER ITERATIONS 
       AND A TOTAL OF          5 INNER ITERATIONS.
    ------------------------------------------------

 NO OUTPUT CONTROL FOR STRESS PERIOD   41   TIME STEP    5
 
 SOLVING FOR HEAD 
                                                   Max.-Head-Change                         Max.-Flux-Residual
  Residual-Control   Outer-Iter.   Inner-Iter.     Column Row Layer    Maximum-Head-Change  Column Row Layer    Maximum-Flux-Residual          L2-NORM 
          0                 1           2             1    1     1       0.3333246516E-02       1    1    1         0.1730163280E+00      0.3237943474E+00
          0                 2           2             1    1     1      -0.3242342722E-03       1    1    1        -0.1730165133E-01      0.3237945835E-01
          0                 3           1             1    1     1       0.2207914893E-04       1    1    1         0.1211115934E-02      0.2266625918E-02

    ------------------------------------------------
       NWT REQUIRED            3 OUTER ITERATIONS 
       AND A TOTAL OF          5 INNER ITERATIONS.
    ------------------------------------------------

 NO OUTPUT CONTROL FOR STRESS PERIOD   41   TIME STEP    6
 
 SOLVING FOR HEAD 
                                                   Max.-Head-Change                         Max.-Flux-Residual
  Residual-Control   Outer-Iter.   Inner-Iter.     Column Row Layer    Maximum-Head-Change  Column Row Layer    Maximum-Flux-Residual          L2-NORM 
          0                 1           2             1    1     1       0.3330180586E-02       1    1    1         0.1728567746E+00      0.3230178531E+00
          0                 2           2             1    1     1      -0.3239360397E-03       1    1    1        -0.1728569591E-01      0.3230180868E-01
          0                 3           1             1    1     1       0.2205884047E-04       1    1    1         0.1209999055E-02      0.2261127206E-02

    ------------------------------------------------
       NWT REQUIRED            3 OUTER ITERATIONS 
       AND A TOTAL OF          5 INNER ITERATIONS.
    ------------------------------------------------

 NO OUTPUT CONTROL FOR STRESS PERIOD   41   TIME STEP    7
 
 SOLVING FOR HEAD 
                                                   Max.-Head-Change                         Max.-Flux-Residual
  Residual-Control   Outer-Iter.   Inner-Iter.     Column Row Layer    Maximum-Head-Change  Column Row Layer    Maximum-Flux-Residual          L2-NORM 
          0                 1           2             1    1     1       0.3327125954E-02       1    1    1         0.1726978112E+00      0.3222650583E+00
          0                 2           2             1    1     1      -0.3236389062E-03       1    1    1        -0.1726979949E-01      0.3222652457E-01
          0                 3           1             1    1     1       0.2203860680E-04       1    1    1         0.1208886308E-02      0.2255857654E-02

    ------------------------------------------------
       NWT REQUIRED            3 OUTER ITERATIONS 
       AND A TOTAL OF          5 INNER ITERATIONS.
    ------------------------------------------------

 NO OUTPUT CONTROL FOR STRESS PERIOD   41   TIME STEP    8
 
 SOLVING FOR HEAD 
                                                   Max.-Head-Change                         Max.-Flux-Residual
  Residual-Control   Outer-Iter.   Inner-Iter.     Column Row Layer    Maximum-Head-Change  Column Row Layer    Maximum-Flux-Residual          L2-NORM 
          0                 1           2             1    1     1       0.3324059224E-02       1    1    1         0.1725382192E+00      0.3215308924E+00
          0                 2           2             1    1     1      -0.3233405956E-03       1    1    1        -0.1725384020E-01      0.3215310775E-01
          0                 3           1             1    1     1       0.2201829337E-04       1    1    1         0.1207769174E-02      0.2250718359E-02

    ------------------------------------------------
       NWT REQUIRED            3 OUTER ITERATIONS 
       AND A TOTAL OF          5 INNER ITERATIONS.
    ------------------------------------------------

 NO OUTPUT CONTROL FOR STRESS PERIOD   41   TIME STEP    9
 
 SOLVING FOR HEAD 
                                                   Max.-Head-Change                         Max.-Flux-Residual
  Residual-Control   Outer-Iter.   Inner-Iter.     Column Row Layer    Maximum-Head-Change  Column Row Layer    Maximum-Flux-Residual          L2-NORM 
          0                 1           2             1    1     1       0.3321027105E-02       1    1    1         0.1723804286E+00      0.3208165032E+00
          0                 2           2             1    1     1      -0.3230456520E-03       1    1    1        -0.1723806106E-01      0.3208166873E-01
          0                 3           1             1    1     1       0.2199820880E-04       1    1    1         0.1206664632E-02      0.2245718447E-02

    ------------------------------------------------
       NWT REQUIRED            3 OUTER ITERATIONS 
       AND A TOTAL OF          5 INNER ITERATIONS.
    ------------------------------------------------

 NO OUTPUT CONTROL FOR STRESS PERIOD   41   TIME STEP   10
 
 SOLVING FOR HEAD 
                                                   Max.-Head-Change                         Max.-Flux-Residual
  Residual-Control   Outer-Iter.   Inner-Iter.     Column Row Layer    Maximum-Head-Change  Column Row Layer    Maximum-Flux-Residual          L2-NORM 
          0                 1           2             1    1     1       0.3318006125E-02       1    1    1         0.1722232182E+00      0.3201259117E+00
          0                 2           2             1    1     1      -0.3227517917E-03       1    1    1        -0.1722233994E-01      0.3201261164E-01
          0                 3           1             1    1     1       0.2197819784E-04       1    1    1         0.1205564139E-02      0.2240895023E-02

    ------------------------------------------------
       NWT REQUIRED            3 OUTER ITERATIONS 
       AND A TOTAL OF          5 INNER ITERATIONS.
    ------------------------------------------------

 NO OUTPUT CONTROL FOR STRESS PERIOD   41   TIME STEP   11
 
 SOLVING FOR HEAD 
                                                   Max.-Head-Change                         Max.-Flux-Residual
  Residual-Control   Outer-Iter.   Inner-Iter.     Column Row Layer    Maximum-Head-Change  Column Row Layer    Maximum-Flux-Residual          L2-NORM 
          0                 1           2             1    1     1       0.3314996214E-02       1    1    1         0.1720665853E+00      0.3194519190E+00
          0                 2           2             1    1     1      -0.3224590086E-03       1    1    1        -0.1720667659E-01      0.3194520858E-01
          0                 3           1             1    1     1       0.2195826072E-04       1    1    1         0.1204467725E-02      0.2236165471E-02

    ------------------------------------------------
       NWT REQUIRED            3 OUTER ITERATIONS 
       AND A TOTAL OF          5 INNER ITERATIONS.
    ------------------------------------------------

 NO OUTPUT CONTROL FOR STRESS PERIOD   41   TIME STEP   12
 
 SOLVING FOR HEAD 
                                                   Max.-Head-Change                         Max.-Flux-Residual
  Residual-Control   Outer-Iter.   Inner-Iter.     Column Row Layer    Maximum-Head-Change  Column Row Layer    Maximum-Flux-Residual          L2-NORM 
          0                 1           2             1    1     1       0.3311973954E-02       1    1    1         0.1719093117E+00      0.3187968648E+00
          0                 2           2             1    1     1      -0.3221650238E-03       1    1    1        -0.1719094914E-01      0.3187970402E-01
          0                 3           1             1    1     1       0.2193824124E-04       1    1    1         0.1203366805E-02      0.2231580204E-02

    ------------------------------------------------
       NWT REQUIRED            3 OUTER ITERATIONS 
       AND A TOTAL OF          5 INNER ITERATIONS.
    ------------------------------------------------

 NO OUTPUT CONTROL FOR STRESS PERIOD   41   TIME STEP   13
 
 SOLVING FOR HEAD 
                                                   Max.-Head-Change                         Max.-Flux-Residual
  Residual-Control   Outer-Iter.   Inner-Iter.     Column Row Layer    Maximum-Head-Change  Column Row Layer    Maximum-Flux-Residual          L2-NORM 
          0                 1           2             1    1     1       0.3308986079E-02       1    1    1         0.1717538272E+00      0.3181547787E+00
          0                 2           2             1    1     1      -0.3218743839E-03       1    1    1        -0.1717540062E-01      0.3181549522E-01
          0                 3           1             1    1     1       0.2191844944E-04       1    1    1         0.1202278395E-02      0.2227085528E-02

    ------------------------------------------------
       NWT REQUIRED            3 OUTER ITERATIONS 
       AND A TOTAL OF          5 INNER ITERATIONS.
    ------------------------------------------------

 NO OUTPUT CONTROL FOR STRESS PERIOD   41   TIME STEP   14
 
 SOLVING FOR HEAD 
                                                   Max.-Head-Change                         Max.-Flux-Residual
  Residual-Control   Outer-Iter.   Inner-Iter.     Column Row Layer    Maximum-Head-Change  Column Row Layer    Maximum-Flux-Residual          L2-NORM 
          0                 1           2             1    1     1       0.3306009093E-02       1    1    1         0.1715989108E+00      0.3175280126E+00
          0                 2           2             1    1     1      -0.3215848028E-03       1    1    1        -0.1715990890E-01      0.3175281840E-01
          0                 3           1             1    1     1       0.2189873006E-04       1    1    1         0.1201193963E-02      0.2222698241E-02

    ------------------------------------------------
       NWT REQUIRED            3 OUTER ITERATIONS 
       AND A TOTAL OF          5 INNER ITERATIONS.
    ------------------------------------------------

 NO OUTPUT CONTROL FOR STRESS PERIOD   41   TIME STEP   15
 
 SOLVING FOR HEAD 
                                                   Max.-Head-Change                         Max.-Flux-Residual
  Residual-Control   Outer-Iter.   Inner-Iter.     Column Row Layer    Maximum-Head-Change  Column Row Layer    Maximum-Flux-Residual          L2-NORM 
          0                 1           2             1    1     1       0.3303019574E-02       1    1    1         0.1714433440E+00      0.3169161803E+00
          0                 2           2             1    1     1      -0.3212940033E-03       1    1    1        -0.1714435215E-01      0.3169163482E-01
          0                 3           1             1    1     1       0.2187892761E-04       1    1    1         0.1200105000E-02      0.2218415386E-02

    ------------------------------------------------
       NWT REQUIRED            3 OUTER ITERATIONS 
       AND A TOTAL OF          5 INNER ITERATIONS.
    ------------------------------------------------

 NO OUTPUT CONTROL FOR STRESS PERIOD   41   TIME STEP   16
 
 SOLVING FOR HEAD 
                                                   Max.-Head-Change                         Max.-Flux-Residual
  Residual-Control   Outer-Iter.   Inner-Iter.     Column Row Layer    Maximum-Head-Change  Column Row Layer    Maximum-Flux-Residual          L2-NORM 
          0                 1           2             1    1     1       0.3300064270E-02       1    1    1         0.1712895574E+00      0.3163208907E+00
          0                 2           2             1    1     1      -0.3210065316E-03       1    1    1        -0.1712897340E-01      0.3163210588E-01
          0                 3           1             1    1     1       0.2185935212E-04       1    1    1         0.1199028491E-02      0.2214248639E-02

    ------------------------------------------------
       NWT REQUIRED            3 OUTER ITERATIONS 
       AND A TOTAL OF          5 INNER ITERATIONS.
    ------------------------------------------------

 NO OUTPUT CONTROL FOR STRESS PERIOD   41   TIME STEP   17
 
 SOLVING FOR HEAD 
                                                   Max.-Head-Change                         Max.-Flux-Residual
  Residual-Control   Outer-Iter.   Inner-Iter.     Column Row Layer    Maximum-Head-Change  Column Row Layer    Maximum-Flux-Residual          L2-NORM 
          0                 1           2             1    1     1       0.3297096286E-02       1    1    1         0.1711351146E+00      0.3157396401E+00
          0                 2           2             1    1     1      -0.3207178266E-03       1    1    1        -0.1711352906E-01      0.3157398026E-01
          0                 3           1             1    1     1       0.2183969262E-04       1    1    1         0.1197947380E-02      0.2210179410E-02

    ------------------------------------------------
       NWT REQUIRED            3 OUTER ITERATIONS 
       AND A TOTAL OF          5 INNER ITERATIONS.
    ------------------------------------------------

 NO OUTPUT CONTROL FOR STRESS PERIOD   41   TIME STEP   18
 
 SOLVING FOR HEAD 
                                                   Max.-Head-Change                         Max.-Flux-Residual
  Residual-Control   Outer-Iter.   Inner-Iter.     Column Row Layer    Maximum-Head-Change  Column Row Layer    Maximum-Flux-Residual          L2-NORM 
          0                 1           2             1    1     1       0.3294162423E-02       1    1    1         0.1709824447E+00      0.3151644913E+00
          0                 2           2             1    1     1      -0.3204324405E-03       1    1    1        -0.1709826199E-01      0.3151646528E-01
          0                 3           1             1    1     1       0.2182025867E-04       1    1    1         0.1196878695E-02      0.2206153799E-02

    ------------------------------------------------
       NWT REQUIRED            3 OUTER ITERATIONS 
       AND A TOTAL OF          5 INNER ITERATIONS.
    ------------------------------------------------

 NO OUTPUT CONTROL FOR STRESS PERIOD   41   TIME STEP   19
 
 SOLVING FOR HEAD 
                                                   Max.-Head-Change                         Max.-Flux-Residual
  Residual-Control   Outer-Iter.   Inner-Iter.     Column Row Layer    Maximum-Head-Change  Column Row Layer    Maximum-Flux-Residual          L2-NORM 
          0                 1           2             1    1     1       0.3291239188E-02       1    1    1         0.1708303288E+00      0.3146027891E+00
          0                 2           2             1    1     1      -0.3201480885E-03       1    1    1        -0.1708305033E-01      0.3146029460E-01
          0                 3           1             1    1     1       0.2180089548E-04       1    1    1         0.1195813877E-02      0.2202221710E-02

    ------------------------------------------------
       NWT REQUIRED            3 OUTER ITERATIONS 
       AND A TOTAL OF          5 INNER ITERATIONS.
    ------------------------------------------------

 NO OUTPUT CONTROL FOR STRESS PERIOD   41   TIME STEP   20
 
 SOLVING FOR HEAD 
                                                   Max.-Head-Change                         Max.-Flux-Residual
  Residual-Control   Outer-Iter.   Inner-Iter.     Column Row Layer    Maximum-Head-Change  Column Row Layer    Maximum-Flux-Residual          L2-NORM 
          0                 1           2             1    1     1       0.3288303122E-02       1    1    1         0.1706775484E+00      0.3140586653E+00
          0                 2           2             1    1     1      -0.3198624881E-03       1    1    1        -0.1706777221E-01      0.3140588228E-01
          0                 3           1             1    1     1       0.2178144709E-04       1    1    1         0.1194744415E-02      0.2198412807E-02

    ------------------------------------------------
       NWT REQUIRED            3 OUTER ITERATIONS 
       AND A TOTAL OF          5 INNER ITERATIONS.
    ------------------------------------------------

 NO OUTPUT CONTROL FOR STRESS PERIOD   41   TIME STEP   21
 
 SOLVING FOR HEAD 
                                                   Max.-Head-Change                         Max.-Flux-Residual
  Residual-Control   Outer-Iter.   Inner-Iter.     Column Row Layer    Maximum-Head-Change  Column Row Layer    Maximum-Flux-Residual          L2-NORM 
          0                 1           2             1    1     1       0.3285400987E-02       1    1    1         0.1705265338E+00      0.3135211989E+00
          0                 2           2             1    1     1      -0.3195801882E-03       1    1    1        -0.1705267068E-01      0.3135213525E-01
          0                 3           1             1    1     1       0.2176222354E-04       1    1    1         0.1193687295E-02      0.2194650361E-02

    ------------------------------------------------
       NWT REQUIRED            3 OUTER ITERATIONS 
       AND A TOTAL OF          5 INNER ITERATIONS.
    ------------------------------------------------

 NO OUTPUT CONTROL FOR STRESS PERIOD   41   TIME STEP   22
 
 SOLVING FOR HEAD 
                                                   Max.-Head-Change                         Max.-Flux-Residual
  Residual-Control   Outer-Iter.   Inner-Iter.     Column Row Layer    Maximum-Head-Change  Column Row Layer    Maximum-Flux-Residual          L2-NORM 
          0                 1           2             1    1     1       0.3282485889E-02       1    1    1         0.1703748472E+00      0.3129923467E+00
          0                 2           2             1    1     1      -0.3192966278E-03       1    1    1        -0.1703750196E-01      0.3129925002E-01
          0                 3           1             1    1     1       0.2174291408E-04       1    1    1         0.1192625488E-02      0.2190948770E-02

    ------------------------------------------------
       NWT REQUIRED            3 OUTER ITERATIONS 
       AND A TOTAL OF          5 INNER ITERATIONS.
    ------------------------------------------------

 NO OUTPUT CONTROL FOR STRESS PERIOD   41   TIME STEP   23
 
 SOLVING FOR HEAD 
                                                   Max.-Head-Change                         Max.-Flux-Residual
  Residual-Control   Outer-Iter.   Inner-Iter.     Column Row Layer    Maximum-Head-Change  Column Row Layer    Maximum-Flux-Residual          L2-NORM 
          0                 1           2             1    1     1       0.3279581234E-02       1    1    1         0.1702237041E+00      0.3124819341E+00
          0                 2           2             1    1     1      -0.3190140831E-03       1    1    1        -0.1702238757E-01      0.3124820824E-01
          0                 3           1             1    1     1       0.2172367420E-04       1    1    1         0.1191567488E-02      0.2187375538E-02

    ------------------------------------------------
       NWT REQUIRED            3 OUTER ITERATIONS 
       AND A TOTAL OF          5 INNER ITERATIONS.
    ------------------------------------------------

 NO OUTPUT CONTROL FOR STRESS PERIOD   41   TIME STEP   24
 
 SOLVING FOR HEAD 
                                                   Max.-Head-Change                         Max.-Flux-Residual
  Residual-Control   Outer-Iter.   Inner-Iter.     Column Row Layer    Maximum-Head-Change  Column Row Layer    Maximum-Flux-Residual          L2-NORM 
          0                 1           2             1    1     1       0.3276710379E-02       1    1    1         0.1700743185E+00      0.3119769030E+00
          0                 2           2             1    1     1      -0.3187348258E-03       1    1    1        -0.1700744893E-01      0.3119770513E-01
          0                 3           1             1    1     1       0.2170465727E-04       1    1    1         0.1190521779E-02      0.2183840196E-02

    ------------------------------------------------
       NWT REQUIRED            3 OUTER ITERATIONS 
       AND A TOTAL OF          5 INNER ITERATIONS.
    ------------------------------------------------

 NO OUTPUT CONTROL FOR STRESS PERIOD   41   TIME STEP   25
 
 SOLVING FOR HEAD 
                                                   Max.-Head-Change                         Max.-Flux-Residual
  Residual-Control   Outer-Iter.   Inner-Iter.     Column Row Layer    Maximum-Head-Change  Column Row Layer    Maximum-Flux-Residual          L2-NORM 
          0                 1           2             1    1     1       0.3273826408E-02       1    1    1         0.1699242534E+00      0.3114798352E+00
          0                 2           2             1    1     1      -0.3184542932E-03       1    1    1        -0.1699244235E-01      0.3114799812E-01
          0                 3           1             1    1     1       0.2168555466E-04       1    1    1         0.1189471326E-02      0.2180361187E-02

    ------------------------------------------------
       NWT REQUIRED            3 OUTER ITERATIONS 
       AND A TOTAL OF          5 INNER ITERATIONS.
    ------------------------------------------------

 NO OUTPUT CONTROL FOR STRESS PERIOD   41   TIME STEP   26
 
 SOLVING FOR HEAD 
                                                   Max.-Head-Change                         Max.-Flux-Residual
  Residual-Control   Outer-Iter.   Inner-Iter.     Column Row Layer    Maximum-Head-Change  Column Row Layer    Maximum-Flux-Residual          L2-NORM 
          0                 1           2             1    1     1       0.3109960546E-02       1    1    1         0.1614115466E+00      0.2929790107E+00
          0                 2           2             1    1     1      -0.3025145769E-03       1    1    1        -0.1614116929E-01      0.2929791399E-01
          0                 3           1             1    1     1       0.2060011873E-04       1    1    1         0.1129882190E-02      0.2050859505E-02

    ------------------------------------------------
       NWT REQUIRED            3 OUTER ITERATIONS 
       AND A TOTAL OF          5 INNER ITERATIONS.
    ------------------------------------------------

 NO OUTPUT CONTROL FOR STRESS PERIOD   41   TIME STEP   27
 
 SOLVING FOR HEAD 
                                                   Max.-Head-Change                         Max.-Flux-Residual
  Residual-Control   Outer-Iter.   Inner-Iter.     Column Row Layer    Maximum-Head-Change  Column Row Layer    Maximum-Flux-Residual          L2-NORM 
          0                 1           2             1    1     1       0.2669261418E-02       1    1    1         0.1385180115E+00      0.2480545703E+00
          0                 2           2             1    1     1      -0.2596464843E-03       1    1    1        -0.1385181022E-01      0.2480546297E-01
          0                 3           1             1    1     1       0.1768096148E-04       1    1    1         0.9696270332E-03      0.1736383195E-02

    ------------------------------------------------
       NWT REQUIRED            3 OUTER ITERATIONS 
       AND A TOTAL OF          5 INNER ITERATIONS.
    ------------------------------------------------

 NO OUTPUT CONTROL FOR STRESS PERIOD   41   TIME STEP   28
 
 SOLVING FOR HEAD 
                                                   Max.-Head-Change                         Max.-Flux-Residual
  Residual-Control   Outer-Iter.   Inner-Iter.     Column Row Layer    Maximum-Head-Change  Column Row Layer    Maximum-Flux-Residual          L2-NORM 
          0                 1           2             1    1     1       0.2667446518E-02       1    1    1         0.1384236165E+00      0.2477320699E+00
          0                 2           2             1    1     1      -0.2594699442E-03       1    1    1        -0.1384237071E-01      0.2477321301E-01
          0                 3           1             1    1     1       0.1766894037E-04       1    1    1         0.9689662969E-03      0.1734125663E-02

    ------------------------------------------------
       NWT REQUIRED            3 OUTER ITERATIONS 
       AND A TOTAL OF          5 INNER ITERATIONS.
    ------------------------------------------------

 NO OUTPUT CONTROL FOR STRESS PERIOD   41   TIME STEP   29
 
 SOLVING FOR HEAD 
                                                   Max.-Head-Change                         Max.-Flux-Residual
  Residual-Control   Outer-Iter.   Inner-Iter.     Column Row Layer    Maximum-Head-Change  Column Row Layer    Maximum-Flux-Residual          L2-NORM 
          0                 1           2             1    1     1       0.2665637289E-02       1    1    1         0.1383295170E+00      0.2474316055E+00
          0                 2           2             1    1     1      -0.2592939549E-03       1    1    1        -0.1383296073E-01      0.2474316625E-01
          0                 3           1             1    1     1       0.1765695595E-04       1    1    1         0.9683075907E-03      0.1732022343E-02

    ------------------------------------------------
       NWT REQUIRED            3 OUTER ITERATIONS 
       AND A TOTAL OF          5 INNER ITERATIONS.
    ------------------------------------------------

 NO OUTPUT CONTROL FOR STRESS PERIOD   41   TIME STEP   30



 STREAM LISTING     PERIOD     41   STEP       30

 LAYER ROW COL. STREAM  RCH.  FLOW INTO     FLOW TO   FLOW OUT OF   OVRLND.     DIRECT     STREAM       STREAM     STREAM     STREAM   STREAMBED  STREAMBED
                SEG.NO.  NO.  STRM. RCH.    AQUIFER    STRM. RCH.    RUNOFF     PRECIP       ET          HEAD       DEPTH      WIDTH   CONDCTNC.   GRADIENT

   1    1    1     1     1    4.7249E+01  3.2762E-01   4.6921E+01  0.000E+00  0.000E+00  0.000E+00  1.09443E+03  1.381E+00  1.662E+01  7.477E-02  1.460E+00
   1    2    2     1     2    4.6921E+01  5.0759E-01   4.6413E+01  0.000E+00  0.000E+00  0.000E+00  1.08944E+03  1.379E+00  1.656E+01  1.159E-01  1.460E+00
   1    3    3     1     3    4.6413E+01  4.3309E-01   4.5980E+01  0.000E+00  0.000E+00  0.000E+00  1.08379E+03  1.376E+00  1.650E+01  9.898E-02  1.459E+00
   1    3    4     1     4    4.5980E+01  3.9899E-01   4.5581E+01  0.000E+00  0.000E+00  0.000E+00  1.07878E+03  1.373E+00  1.644E+01  9.124E-02  1.458E+00
   1    4    5     2     1    4.3581E+01  3.6514E-01   4.3216E+01  0.000E+00  0.000E+00  0.000E+00  1.07362E+03  1.681E+00  1.200E+01  7.800E-02  1.560E+00
   1    5    6     2     2    4.3216E+01  2.8042E-01   4.2936E+01  0.000E+00  0.000E+00  0.000E+00  1.06818E+03  1.674E+00  1.200E+01  6.000E-02  1.558E+00
   1    6    6     2     3    4.2936E+01  2.8003E-01   4.2656E+01  0.000E+00  0.000E+00  0.000E+00  1.06346E+03  1.667E+00  1.200E+01  6.000E-02  1.556E+00
   1    7    6     2     4    4.2656E+01  2.7964E-01   4.2376E+01  0.000E+00  0.000E+00  0.000E+00  1.05874E+03  1.661E+00  1.200E+01  6.000E-02  1.554E+00
   1    8    6     2     5    4.2376E+01  2.7924E-01   4.2097E+01  0.000E+00  0.000E+00  0.000E+00  1.05401E+03  1.654E+00  1.200E+01  6.000E-02  1.551E+00
   1    3    5     3     1    2.0000E+00  2.8252E-01   1.7175E+00  0.000E+00  0.000E+00  0.000E+00  1.07555E+03  1.909E+00  9.636E+00  7.227E-02  1.955E+00
   1    3    6     3     2    1.7175E+00  2.4905E-01   1.4684E+00  0.000E+00  0.000E+00  0.000E+00  1.07264E+03  1.727E+00  8.909E+00  6.682E-02  1.864E+00
   1    3    7     3     3    1.4684E+00  1.9718E-01   1.2712E+00  0.000E+00  0.000E+00  0.000E+00  1.06987E+03  1.555E+00  8.218E+00  5.547E-02  1.777E+00
   1    4    8     3     4    1.2712E+00  2.2567E-01   1.0456E+00  0.000E+00  0.000E+00  0.000E+00  1.06682E+03  1.364E+00  7.455E+00  6.709E-02  1.682E+00
   1    5    8     3     5    1.0456E+00  1.5790E-01   8.8768E-01  0.000E+00  0.000E+00  0.000E+00  1.06362E+03  1.164E+00  6.655E+00  4.991E-02  1.582E+00
   1    6    8     3     6    8.8768E-01  5.5980E-02   8.3170E-01  0.000E+00  0.000E+00  0.000E+00  1.06158E+03  1.036E+00  6.145E+00  1.844E-02  1.518E+00
   1    5   10     4     1    1.0000E+01  9.0919E-02   9.9091E+00  0.000E+00  0.000E+00  0.000E+00  1.07836E+03  6.368E-01  1.000E+01  2.500E-02  1.212E+00
   1    5    9     4     2    9.9091E+00  1.8158E-01   9.7275E+00  0.000E+00  0.000E+00  0.000E+00  1.07154E+03  6.315E-01  1.000E+01  5.000E-02  1.211E+00
   1    6    8     4     3    9.7275E+00  1.2689E-01   9.6006E+00  0.000E+00  0.000E+00  0.000E+00  1.06381E+03  6.256E-01  1.000E+01  3.500E-02  1.209E+00
   1    6    8     5     1    1.0432E+01  2.2686E-01   1.0205E+01  0.000E+00  0.000E+00  0.000E+00  1.05868E+03  6.790E-01  1.542E+01  6.166E-02  1.226E+00
   1    7    7     5     2    1.0205E+01  2.7894E-01   9.9265E+00  0.000E+00  0.000E+00  0.000E+00  1.05417E+03  6.732E-01  1.519E+01  7.594E-02  1.224E+00
   1    8    7     5     3    9.9265E+00  1.9221E-01   9.7343E+00  0.000E+00  0.000E+00  0.000E+00  1.04992E+03  6.676E-01  1.497E+01  5.241E-02  1.223E+00
   1    8    6     5     4    9.7343E+00  1.3577E-01   9.5985E+00  0.000E+00  0.000E+00  0.000E+00  1.04691E+03  6.637E-01  1.482E+01  3.706E-02  1.221E+00
   1    9    6     6     1    9.5985E+00  2.2097E-01   9.3776E+00  0.000E+00  0.000E+00  0.000E+00  1.04341E+03  6.828E-01  1.200E+01  6.000E-02  1.228E+00
   1   10    7     6     2    9.3776E+00  2.2039E-01   9.1572E+00  0.000E+00  0.000E+00  0.000E+00  1.03885E+03  6.732E-01  1.200E+01  6.000E-02  1.224E+00
   1   11    7     6     3    9.1572E+00  2.1981E-01   8.9374E+00  0.000E+00  0.000E+00  0.000E+00  1.03430E+03  6.636E-01  1.200E+01  6.000E-02  1.221E+00
   1   12    7     6     4    8.9374E+00  2.1923E-01   8.7181E+00  0.000E+00  0.000E+00  0.000E+00  1.02974E+03  6.539E-01  1.200E+01  6.000E-02  1.218E+00
   1   13    7     6     5    8.7181E+00 -1.1034E-01   8.8285E+00  0.000E+00  0.000E+00  0.000E+00  1.02656E+03  6.514E-01  1.200E+01  2.400E-01 -1.533E-01
   1   14    9     7     1    1.5000E+02  1.3456E+00   1.4865E+02  0.000E+00  0.000E+00  0.000E+00  1.03987E+03  2.288E+00  5.529E+01  5.593E-01  8.019E-01
   1   13    8     7     2    1.4865E+02  1.8506E+00   1.4680E+02  0.000E+00  0.000E+00  0.000E+00  1.03478E+03  2.279E+00  5.526E+01  6.148E-01  1.003E+00
   1   13    7     7     3    1.4680E+02  1.4907E+00   1.4531E+02  0.000E+00  0.000E+00  0.000E+00  1.02969E+03  2.270E+00  5.522E+01  5.584E-01  8.898E-01
   1   13    6     8     1    1.5414E+02  8.4284E-01   1.5330E+02  0.000E+00  0.000E+00  0.000E+00  1.02472E+03  2.843E+00  4.122E+01  4.201E-01  6.688E-01
   1   13    5     8     2    1.5330E+02  1.1248E-01   1.5319E+02  0.000E+00  0.000E+00  0.000E+00  1.01846E+03  2.840E+00  4.117E+01  4.196E-01  8.936E-02
   1   13    4     8     3    1.5319E+02 -2.6391E+00   1.5583E+02  0.000E+00  0.000E+00  0.000E+00  1.01222E+03  2.848E+00  4.130E+01  4.209E+00 -2.090E-01
   1   13    3     8     4    1.5583E+02 -3.7261E+00   1.5955E+02  0.000E+00  0.000E+00  0.000E+00  1.00600E+03  2.870E+00  4.162E+01  4.241E+00 -2.929E-01
   1   13    2     8     5    1.5955E+02 -2.5923E+00   1.6214E+02  0.000E+00  0.000E+00  0.000E+00  9.99767E+02  2.892E+00  4.193E+01  4.273E+00 -2.022E-01
   1   13    1     8     6    1.6214E+02 -1.9791E+00   1.6412E+02  0.000E+00  0.000E+00  0.000E+00  9.94782E+02  2.907E+00  4.215E+01  2.577E+00 -2.560E-01
   1    8    6     9     1    4.2097E+01  0.0000E+00   4.2097E+01  0.000E+00  0.000E+00  0.000E+00  1.08412E+03  5.368E+00  4.000E+00  0.000E+00  2.789E+00
   1    8    5     9     2    4.2097E+01  0.0000E+00   4.2097E+01  0.000E+00  0.000E+00  0.000E+00  1.08362E+03  5.368E+00  4.000E+00  0.000E+00  2.789E+00





UNSATURATED ZONE PACKAGE VOLUMETRIC BUDGET FOR  TIME STEP    30 STRESS PERIOD   41
  ------------------------------------------------------------------------------



     CUMULATIVE VOLUMES      L**3       RATES FOR THIS TIME STEP      L**3/T
     ------------------                 ------------------------

           IN:                                      IN:
           ---                                      ---
        INFILTRATION =    89230218.9097          INFILTRATION =           0.8475

          OUT:                                     OUT:
          ----                                     ----
              UZF ET =    88405203.6923                UZF ET =           0.8475
        UZF RECHARGE =       73224.0000          UZF RECHARGE =       0.0000E+00

            IN - OUT =      751791.2173              IN - OUT =       0.0000E+00

          STORAGE:                                 STORAGE:
          --------                                 --------
      STORAGE CHANGE =      751791.5911        STORAGE CHANGE =      -2.2409E-15

 PERCENT DISCREPANCY IS DIFFERENCE BETWEEN IN-OUT MINUS CHANGE IN STORAGE
 DIVIDED BY THE AVERAGE OF IN AND OUT TIMES 100

 PERCENT DISCREPANCY =           0.00     PERCENT DISCREPANCY =           0.00






1
  VOLUMETRIC BUDGET FOR ENTIRE MODEL AT END OF TIME STEP   30, STRESS PERIOD  41
  ------------------------------------------------------------------------------

     CUMULATIVE VOLUMES      L**3       RATES FOR THIS TIME STEP      L**3/T
     ------------------                 ------------------------

           IN:                                      IN:
           ---                                      ---
             STORAGE     =    31154062.0000               STORAGE     =       7.3962E-02
       CONSTANT HEAD     =           0.0000         CONSTANT HEAD     =           0.0000
     HEAD DEP BOUNDS     =    30129722.0000       HEAD DEP BOUNDS     =           0.2864
      STREAM LEAKAGE     =  1235016832.0000        STREAM LEAKAGE     =          12.0758
        UZF RECHARGE     =       73223.9531          UZF RECHARGE     =           0.0000
               GW ET     =           0.0000                 GW ET     =           0.0000
     SURFACE LEAKAGE     =           0.0000       SURFACE LEAKAGE     =           0.0000

                TOTAL IN =  1296373888.0000                  TOTAL IN =          12.4362

          OUT:                                     OUT:
          ----                                     ----
             STORAGE     =   100758880.0000               STORAGE     =           1.1027
       CONSTANT HEAD     =           0.0000         CONSTANT HEAD     =           0.0000
     HEAD DEP BOUNDS     =    30208636.0000       HEAD DEP BOUNDS     =           0.2869
      STREAM LEAKAGE     =  1165425536.0000        STREAM LEAKAGE     =          11.0469
        UZF RECHARGE     =           0.0000          UZF RECHARGE     =           0.0000
               GW ET     =           0.0000                 GW ET     =           0.0000
     SURFACE LEAKAGE     =           0.0000       SURFACE LEAKAGE     =           0.0000

               TOTAL OUT =  1296393088.0000                 TOTAL OUT =          12.4365

                IN - OUT =      -19200.0000                  IN - OUT =      -2.8992E-04

     PERCENT DISCREPANCY =          -0.00         PERCENT DISCREPANCY =          -0.00






         TIME SUMMARY AT END OF TIME STEP   30 IN STRESS PERIOD   41
                    SECONDS     MINUTES      HOURS       DAYS        YEARS
                    -----------------------------------------------------------
   TIME STEP LENGTH  87667.      1461.1      24.352      1.0147     2.77799E-03
 STRESS PERIOD TIME 2.63000E+06  43833.      730.56      30.440     8.33397E-02
         TOTAL TIME 1.05286E+08 1.75476E+06  29246.      1218.6      3.3363    
1
1
                            STRESS PERIOD NO.   42, LENGTH =   2630000.    
                            -----------------------------------------------

                              NUMBER OF TIME STEPS =    30

                               MULTIPLIER FOR DELT =     1.000

                            INITIAL TIME STEP SIZE =   87666.66    

 REUSING NON-PARAMETER GHB CELLS FROM LAST STRESS PERIOD

      2 GHB CELLS

 REUSING STREAM SEGMENT DATA FROM LAST STRESS PERIOD



            AREAL INFILTRATION RATE
 READING ON UNIT   19 WITH FORMAT: (FREE)              

            1           2           3           4           5           6           7           8           9          10
 ........................................................................................................................
   1   1.0000E-10  2.0000E-10   0.000       0.000       0.000       0.000       0.000       0.000       0.000       0.000    
   2   2.0000E-10  1.0000E-10  2.0000E-10   0.000       0.000      8.0000E-10  8.0000E-10  5.0000E-10   0.000       0.000    
   3    0.000      5.0000E-10  1.0000E-10  1.0000E-10  8.0000E-10  8.0000E-10  5.0000E-10  5.0000E-10   0.000       0.000    
   4   8.0000E-10  5.0000E-10  1.0000E-10  1.0000E-10  1.0000E-10  1.0000E-10  1.0000E-10  1.0000E-10  2.0000E-10   0.000    
   5   8.0000E-10  5.0000E-10  1.0000E-10  1.0000E-10  1.0000E-10  1.0000E-10  1.0000E-10  1.0000E-10  1.0000E-10  1.0000E-10
   6   8.0000E-10  5.0000E-10  5.0000E-10  2.0000E-10  2.0000E-10  1.0000E-10  1.0000E-10  1.0000E-10  1.0000E-10  5.0000E-10
   7   8.0000E-10  5.0000E-10  5.0000E-10  2.0000E-10  2.0000E-10  1.0000E-10  1.0000E-10  2.0000E-10  2.0000E-10   0.000    
   8    0.000      5.0000E-10  5.0000E-10  2.0000E-10  2.0000E-10  1.0000E-10  1.0000E-10  2.0000E-10  5.0000E-10   0.000    
   9    0.000      5.0000E-10  5.0000E-10  2.0000E-10  2.0000E-10  1.0000E-10  1.0000E-10  2.0000E-10  5.0000E-10   0.000    
  10    0.000      5.0000E-10  5.0000E-10  2.0000E-10  2.0000E-10  1.0000E-10  1.0000E-10  2.0000E-10  5.0000E-10  8.0000E-10
  11    0.000      1.0000E-10  1.0000E-10  1.0000E-10  1.0000E-10  1.0000E-10  1.0000E-10  2.0000E-10  5.0000E-10   0.000    
  12   1.0000E-10  1.0000E-10  1.0000E-10  1.0000E-10  1.0000E-10  1.0000E-10  1.0000E-10  1.0000E-10  2.0000E-10   0.000    
  13   1.0000E-10  1.0000E-10  2.0000E-10  2.0000E-10  2.0000E-10  2.0000E-10  2.0000E-10  1.0000E-10  1.0000E-10   0.000    
  14    0.000      2.0000E-10  5.0000E-10  5.0000E-10  5.0000E-10  5.0000E-10  5.0000E-10  2.0000E-10  1.0000E-10   0.000    
  15    0.000       0.000      8.0000E-10  8.0000E-10  8.0000E-10  8.0000E-10   0.000       0.000       0.000       0.000    

                  ET RATE =  5.000000E-08

 USING ET EXTINCTION DEPTH FROM PREVIOUS STRESS PERIOD. CURRENT PERIOD IS:      42

 USING EXTINCTION WATER CONTENT FROM PREVIOUS STRESS PERIOD. CURRENT PERIOD IS:      42

 USING AIR ENTRY PRESSURE FROM PREVIOUS STRESS PERIOD. CURRENT PERIOD IS:      42

 USING ROOT PRESSURE HEAD FROM PREVIOUS STRESS PERIOD. CURRENT PERIOD IS:      42

 USING ROOT ACTIVITY FROM PREVIOUS STRESS PERIOD. CURRENT PERIOD IS:      42
 
 SOLVING FOR HEAD 
                                                   Max.-Head-Change                         Max.-Flux-Residual
  Residual-Control   Outer-Iter.   Inner-Iter.     Column Row Layer    Maximum-Head-Change  Column Row Layer    Maximum-Flux-Residual          L2-NORM 
          0                 1           2             1    1     1       0.2663810286E-02       1    1    1         0.1382344950E+00      0.2471485226E+00
          0                 2           2             1    1     1      -0.2591162365E-03       1    1    1        -0.1382345849E-01      0.2471485804E-01
          0                 3           1             1    1     1       0.1764485366E-04       1    1    1         0.9676424205E-03      0.1730040882E-02

    ------------------------------------------------
       NWT REQUIRED            3 OUTER ITERATIONS 
       AND A TOTAL OF          5 INNER ITERATIONS.
    ------------------------------------------------

 NO OUTPUT CONTROL FOR STRESS PERIOD   42   TIME STEP    1
 
 SOLVING FOR HEAD 
                                                   Max.-Head-Change                         Max.-Flux-Residual
  Residual-Control   Outer-Iter.   Inner-Iter.     Column Row Layer    Maximum-Head-Change  Column Row Layer    Maximum-Flux-Residual          L2-NORM 
          0                 1           2             1    1     1       0.2662012366E-02       1    1    1         0.1381409846E+00      0.2468792261E+00
          0                 2           2             1    1     1      -0.2589413476E-03       1    1    1        -0.1381410741E-01      0.2468792842E-01
          0                 3           1             1    1     1       0.1763294474E-04       1    1    1         0.9669878612E-03      0.1728155874E-02

    ------------------------------------------------
       NWT REQUIRED            3 OUTER ITERATIONS 
       AND A TOTAL OF          5 INNER ITERATIONS.
    ------------------------------------------------

 NO OUTPUT CONTROL FOR STRESS PERIOD   42   TIME STEP    2
 
 SOLVING FOR HEAD 
                                                   Max.-Head-Change                         Max.-Flux-Residual
  Residual-Control   Outer-Iter.   Inner-Iter.     Column Row Layer    Maximum-Head-Change  Column Row Layer    Maximum-Flux-Residual          L2-NORM 
          0                 1           2             1    1     1       0.2660220042E-02       1    1    1         0.1380477655E+00      0.2466258859E+00
          0                 2           2             1    1     1      -0.2587670027E-03       1    1    1        -0.1380478547E-01      0.2466259425E-01
          0                 3           1             1    1     1       0.1762107226E-04       1    1    1         0.9663353145E-03      0.1726382343E-02

    ------------------------------------------------
       NWT REQUIRED            3 OUTER ITERATIONS 
       AND A TOTAL OF          5 INNER ITERATIONS.
    ------------------------------------------------

 NO OUTPUT CONTROL FOR STRESS PERIOD   42   TIME STEP    3
 
 SOLVING FOR HEAD 
                                                   Max.-Head-Change                         Max.-Flux-Residual
  Residual-Control   Outer-Iter.   Inner-Iter.     Column Row Layer    Maximum-Head-Change  Column Row Layer    Maximum-Flux-Residual          L2-NORM 
          0                 1           2             1    1     1       0.2658433287E-02       1    1    1         0.1379548365E+00      0.2463859364E+00
          0                 2           2             1    1     1      -0.2585931999E-03       1    1    1        -0.1379549254E-01      0.2463859921E-01
          0                 3           1             1    1     1       0.1760923717E-04       1    1    1         0.9656848223E-03      0.1724702572E-02

    ------------------------------------------------
       NWT REQUIRED            3 OUTER ITERATIONS 
       AND A TOTAL OF          5 INNER ITERATIONS.
    ------------------------------------------------

 NO OUTPUT CONTROL FOR STRESS PERIOD   42   TIME STEP    4
 
 SOLVING FOR HEAD 
                                                   Max.-Head-Change                         Max.-Flux-Residual
  Residual-Control   Outer-Iter.   Inner-Iter.     Column Row Layer    Maximum-Head-Change  Column Row Layer    Maximum-Flux-Residual          L2-NORM 
          0                 1           2             1    1     1       0.2656652076E-02       1    1    1         0.1378621963E+00      0.2461554372E+00
          0                 2           2             1    1     1      -0.2584199362E-03       1    1    1        -0.1378622848E-01      0.2461554927E-01
          0                 3           1             1    1     1       0.1759743854E-04       1    1    1         0.9650363414E-03      0.1723089886E-02

    ------------------------------------------------
       NWT REQUIRED            3 OUTER ITERATIONS 
       AND A TOTAL OF          5 INNER ITERATIONS.
    ------------------------------------------------

 NO OUTPUT CONTROL FOR STRESS PERIOD   42   TIME STEP    5
 
 SOLVING FOR HEAD 
                                                   Max.-Head-Change                         Max.-Flux-Residual
  Residual-Control   Outer-Iter.   Inner-Iter.     Column Row Layer    Maximum-Head-Change  Column Row Layer    Maximum-Flux-Residual          L2-NORM 
          0                 1           2             1    1     1       0.2654876385E-02       1    1    1         0.1377698436E+00      0.2459322819E+00
          0                 2           2             1    1     1      -0.2582472094E-03       1    1    1        -0.1377699319E-01      0.2459323387E-01
          0                 3           1             1    1     1       0.1758567635E-04       1    1    1         0.9643898525E-03      0.1721527265E-02

    ------------------------------------------------
       NWT REQUIRED            3 OUTER ITERATIONS 
       AND A TOTAL OF          5 INNER ITERATIONS.
    ------------------------------------------------

 NO OUTPUT CONTROL FOR STRESS PERIOD   42   TIME STEP    6
 
 SOLVING FOR HEAD 
                                                   Max.-Head-Change                         Max.-Flux-Residual
  Residual-Control   Outer-Iter.   Inner-Iter.     Column Row Layer    Maximum-Head-Change  Column Row Layer    Maximum-Flux-Residual          L2-NORM 
          0                 1           2             1    1     1       0.2653082760E-02       1    1    1         0.1376765600E+00      0.2457222420E+00
          0                 2           2             1    1     1      -0.2580727384E-03       1    1    1        -0.1376766482E-01      0.2457223004E-01
          0                 3           1             1    1     1       0.1757379559E-04       1    1    1         0.9637368717E-03      0.1720058884E-02

    ------------------------------------------------
       NWT REQUIRED            3 OUTER ITERATIONS 
       AND A TOTAL OF          5 INNER ITERATIONS.
    ------------------------------------------------

 NO OUTPUT CONTROL FOR STRESS PERIOD   42   TIME STEP    7
 
 SOLVING FOR HEAD 
                                                   Max.-Head-Change                         Max.-Flux-Residual
  Residual-Control   Outer-Iter.   Inner-Iter.     Column Row Layer    Maximum-Head-Change  Column Row Layer    Maximum-Flux-Residual          L2-NORM 
          0                 1           2             1    1     1       0.2651318077E-02       1    1    1         0.1375847806E+00      0.2455163471E+00
          0                 2           2             1    1     1      -0.2579010821E-03       1    1    1        -0.1375848683E-01      0.2455164021E-01
          0                 3           1             1    1     1       0.1756210606E-04       1    1    1         0.9630944065E-03      0.1718640725E-02

    ------------------------------------------------
       NWT REQUIRED            3 OUTER ITERATIONS 
       AND A TOTAL OF          5 INNER ITERATIONS.
    ------------------------------------------------

 NO OUTPUT CONTROL FOR STRESS PERIOD   42   TIME STEP    8
 
 SOLVING FOR HEAD 
                                                   Max.-Head-Change                         Max.-Flux-Residual
  Residual-Control   Outer-Iter.   Inner-Iter.     Column Row Layer    Maximum-Head-Change  Column Row Layer    Maximum-Flux-Residual          L2-NORM 
          0                 1           2             1    1     1       0.2649558840E-02       1    1    1         0.1374932848E+00      0.2453177544E+00
          0                 2           2             1    1     1      -0.2577299557E-03       1    1    1        -0.1374933722E-01      0.2453178084E-01
          0                 3           1             1    1     1       0.1755045321E-04       1    1    1         0.9624539415E-03      0.1717225520E-02

    ------------------------------------------------
       NWT REQUIRED            3 OUTER ITERATIONS 
       AND A TOTAL OF          5 INNER ITERATIONS.
    ------------------------------------------------

 NO OUTPUT CONTROL FOR STRESS PERIOD   42   TIME STEP    9
 
 SOLVING FOR HEAD 
                                                   Max.-Head-Change                         Max.-Flux-Residual
  Residual-Control   Outer-Iter.   Inner-Iter.     Column Row Layer    Maximum-Head-Change  Column Row Layer    Maximum-Flux-Residual          L2-NORM 
          0                 1           2             1    1     1       0.2647805024E-02       1    1    1         0.1374020714E+00      0.2451303141E+00
          0                 2           2             1    1     1      -0.2575593567E-03       1    1    1        -0.1374021585E-01      0.2451303681E-01
          0                 3           1             1    1     1       0.1753883587E-04       1    1    1         0.9618154337E-03      0.1715913512E-02

    ------------------------------------------------
       NWT REQUIRED            3 OUTER ITERATIONS 
       AND A TOTAL OF          5 INNER ITERATIONS.
    ------------------------------------------------

 NO OUTPUT CONTROL FOR STRESS PERIOD   42   TIME STEP   10
 
 SOLVING FOR HEAD 
                                                   Max.-Head-Change                         Max.-Flux-Residual
  Residual-Control   Outer-Iter.   Inner-Iter.     Column Row Layer    Maximum-Head-Change  Column Row Layer    Maximum-Flux-Residual          L2-NORM 
          0                 1           2             1    1     1       0.2646033187E-02       1    1    1         0.1373099217E+00      0.2449458082E+00
          0                 2           2             1    1     1      -0.2573870049E-03       1    1    1        -0.1373100085E-01      0.2449458624E-01
          0                 3           1             1    1     1       0.1752709948E-04       1    1    1         0.9611703886E-03      0.1714622125E-02

    ------------------------------------------------
       NWT REQUIRED            3 OUTER ITERATIONS 
       AND A TOTAL OF          5 INNER ITERATIONS.
    ------------------------------------------------

 NO OUTPUT CONTROL FOR STRESS PERIOD   42   TIME STEP   11
 
 SOLVING FOR HEAD 
                                                   Max.-Head-Change                         Max.-Flux-Residual
  Residual-Control   Outer-Iter.   Inner-Iter.     Column Row Layer    Maximum-Head-Change  Column Row Layer    Maximum-Flux-Residual          L2-NORM 
          0                 1           2             1    1     1       0.2644290228E-02       1    1    1         0.1372192723E+00      0.2447665468E+00
          0                 2           2             1    1     1      -0.2572174618E-03       1    1    1        -0.1372193587E-01      0.2447666003E-01
          0                 3           1             1    1     1       0.1751555408E-04       1    1    1         0.9605358288E-03      0.1713367436E-02

    ------------------------------------------------
       NWT REQUIRED            3 OUTER ITERATIONS 
       AND A TOTAL OF          5 INNER ITERATIONS.
    ------------------------------------------------

 NO OUTPUT CONTROL FOR STRESS PERIOD   42   TIME STEP   12
 
 SOLVING FOR HEAD 
                                                   Max.-Head-Change                         Max.-Flux-Residual
  Residual-Control   Outer-Iter.   Inner-Iter.     Column Row Layer    Maximum-Head-Change  Column Row Layer    Maximum-Flux-Residual          L2-NORM 
          0                 1           2             1    1     1       0.2642552618E-02       1    1    1         0.1371289029E+00      0.2445880205E+00
          0                 2           2             1    1     1      -0.2570484400E-03       1    1    1        -0.1371289892E-01      0.2445880721E-01
          0                 3           1             1    1     1       0.1750404490E-04       1    1    1         0.9599032680E-03      0.1712117234E-02

    ------------------------------------------------
       NWT REQUIRED            3 OUTER ITERATIONS 
       AND A TOTAL OF          5 INNER ITERATIONS.
    ------------------------------------------------

 NO OUTPUT CONTROL FOR STRESS PERIOD   42   TIME STEP   13
 
 SOLVING FOR HEAD 
                                                   Max.-Head-Change                         Max.-Flux-Residual
  Residual-Control   Outer-Iter.   Inner-Iter.     Column Row Layer    Maximum-Head-Change  Column Row Layer    Maximum-Flux-Residual          L2-NORM 
          0                 1           2             1    1     1       0.2640796892E-02       1    1    1         0.1370375932E+00      0.2444155592E+00
          0                 2           2             1    1     1      -0.2568776550E-03       1    1    1        -0.1370376791E-01      0.2444156132E-01
          0                 3           1             1    1     1       0.1749241477E-04       1    1    1         0.9592640834E-03      0.1710910053E-02

    ------------------------------------------------
       NWT REQUIRED            3 OUTER ITERATIONS 
       AND A TOTAL OF          5 INNER ITERATIONS.
    ------------------------------------------------

 NO OUTPUT CONTROL FOR STRESS PERIOD   42   TIME STEP   14
 
 SOLVING FOR HEAD 
                                                   Max.-Head-Change                         Max.-Flux-Residual
  Residual-Control   Outer-Iter.   Inner-Iter.     Column Row Layer    Maximum-Head-Change  Column Row Layer    Maximum-Flux-Residual          L2-NORM 
          0                 1           2             1    1     1       0.2639069951E-02       1    1    1         0.1369477794E+00      0.2442454394E+00
          0                 2           2             1    1     1      -0.2567096701E-03       1    1    1        -0.1369478651E-01      0.2442454936E-01
          0                 3           1             1    1     1       0.1748097541E-04       1    1    1         0.9586353773E-03      0.1709719359E-02

    ------------------------------------------------
       NWT REQUIRED            3 OUTER ITERATIONS 
       AND A TOTAL OF          5 INNER ITERATIONS.
    ------------------------------------------------

 NO OUTPUT CONTROL FOR STRESS PERIOD   42   TIME STEP   15
 
 SOLVING FOR HEAD 
                                                   Max.-Head-Change                         Max.-Flux-Residual
  Residual-Control   Outer-Iter.   Inner-Iter.     Column Row Layer    Maximum-Head-Change  Column Row Layer    Maximum-Flux-Residual          L2-NORM 
          0                 1           2             1    1     1       0.2637348287E-02       1    1    1         0.1368582405E+00      0.2440817285E+00
          0                 2           2             1    1     1      -0.2565421989E-03       1    1    1        -0.1368583259E-01      0.2440817793E-01
          0                 3           1             1    1     1       0.1746957154E-04       1    1    1         0.9580086185E-03      0.1708573477E-02

    ------------------------------------------------
       NWT REQUIRED            3 OUTER ITERATIONS 
       AND A TOTAL OF          5 INNER ITERATIONS.
    ------------------------------------------------

 NO OUTPUT CONTROL FOR STRESS PERIOD   42   TIME STEP   16
 
 SOLVING FOR HEAD 
                                                   Max.-Head-Change                         Max.-Flux-Residual
  Residual-Control   Outer-Iter.   Inner-Iter.     Column Row Layer    Maximum-Head-Change  Column Row Layer    Maximum-Flux-Residual          L2-NORM 
          0                 1           2             1    1     1       0.2635608431E-02       1    1    1         0.1367677574E+00      0.2439202269E+00
          0                 2           2             1    1     1      -0.2563729580E-03       1    1    1        -0.1367678424E-01      0.2439202787E-01
          0                 3           1             1    1     1       0.1745804697E-04       1    1    1         0.9573752317E-03      0.1707442741E-02

    ------------------------------------------------
       NWT REQUIRED            3 OUTER ITERATIONS 
       AND A TOTAL OF          5 INNER ITERATIONS.
    ------------------------------------------------

 NO OUTPUT CONTROL FOR STRESS PERIOD   42   TIME STEP   17
 
 SOLVING FOR HEAD 
                                                   Max.-Head-Change                         Max.-Flux-Residual
  Residual-Control   Outer-Iter.   Inner-Iter.     Column Row Layer    Maximum-Head-Change  Column Row Layer    Maximum-Flux-Residual          L2-NORM 
          0                 1           2             1    1     1       0.2633897295E-02       1    1    1         0.1366787667E+00      0.2437622199E+00
          0                 2           2             1    1     1      -0.2562065110E-03       1    1    1        -0.1366788516E-01      0.2437622705E-01
          0                 3           1             1    1     1       0.1744671245E-04       1    1    1         0.9567523032E-03      0.1706336679E-02

    ------------------------------------------------
       NWT REQUIRED            3 OUTER ITERATIONS 
       AND A TOTAL OF          5 INNER ITERATIONS.
    ------------------------------------------------

 NO OUTPUT CONTROL FOR STRESS PERIOD   42   TIME STEP   18
 
 SOLVING FOR HEAD 
                                                   Max.-Head-Change                         Max.-Flux-Residual
  Residual-Control   Outer-Iter.   Inner-Iter.     Column Row Layer    Maximum-Head-Change  Column Row Layer    Maximum-Flux-Residual          L2-NORM 
          0                 1           2             1    1     1       0.2632191412E-02       1    1    1         0.1365900473E+00      0.2436038299E+00
          0                 2           2             1    1     1      -0.2560405744E-03       1    1    1        -0.1365901319E-01      0.2436038817E-01
          0                 3           1             1    1     1       0.1743541249E-04       1    1    1         0.9561312542E-03      0.1705227863E-02

    ------------------------------------------------
       NWT REQUIRED            3 OUTER ITERATIONS 
       AND A TOTAL OF          5 INNER ITERATIONS.
    ------------------------------------------------

 NO OUTPUT CONTROL FOR STRESS PERIOD   42   TIME STEP   19
 
 SOLVING FOR HEAD 
                                                   Max.-Head-Change                         Max.-Flux-Residual
  Residual-Control   Outer-Iter.   Inner-Iter.     Column Row Layer    Maximum-Head-Change  Column Row Layer    Maximum-Flux-Residual          L2-NORM 
          0                 1           2             1    1     1       0.2630467262E-02       1    1    1         0.1365003820E+00      0.2434484181E+00
          0                 2           2             1    1     1      -0.2558728611E-03       1    1    1        -0.1365004663E-01      0.2434484708E-01
          0                 3           1             1    1     1       0.1742399206E-04       1    1    1         0.9555035932E-03      0.1704140456E-02

    ------------------------------------------------
       NWT REQUIRED            3 OUTER ITERATIONS 
       AND A TOTAL OF          5 INNER ITERATIONS.
    ------------------------------------------------

 NO OUTPUT CONTROL FOR STRESS PERIOD   42   TIME STEP   20
 
 SOLVING FOR HEAD 
                                                   Max.-Head-Change                         Max.-Flux-Residual
  Residual-Control   Outer-Iter.   Inner-Iter.     Column Row Layer    Maximum-Head-Change  Column Row Layer    Maximum-Flux-Residual          L2-NORM 
          0                 1           2             1    1     1       0.2628771767E-02       1    1    1         0.1364122060E+00      0.2433022150E+00
          0                 2           2             1    1     1      -0.2557079352E-03       1    1    1        -0.1364122900E-01      0.2433024568E-01
          0                 3           1             1    1     1       0.1741276096E-04       1    1    1         0.9548863528E-03      0.1703385589E-02

    ------------------------------------------------
       NWT REQUIRED            3 OUTER ITERATIONS 
       AND A TOTAL OF          5 INNER ITERATIONS.
    ------------------------------------------------

 NO OUTPUT CONTROL FOR STRESS PERIOD   42   TIME STEP   21
 
 SOLVING FOR HEAD 
                                                   Max.-Head-Change                         Max.-Flux-Residual
  Residual-Control   Outer-Iter.   Inner-Iter.     Column Row Layer    Maximum-Head-Change  Column Row Layer    Maximum-Flux-Residual          L2-NORM 
          0                 1           2             1    1     1       0.2627057957E-02       1    1    1         0.1363230792E+00      0.2431485085E+00
          0                 2           2             1    1     1      -0.2555412279E-03       1    1    1        -0.1363231630E-01      0.2431487278E-01
          0                 3           1             1    1     1       0.1740140917E-04       1    1    1         0.9542624763E-03      0.1702042087E-02

    ------------------------------------------------
       NWT REQUIRED            3 OUTER ITERATIONS 
       AND A TOTAL OF          5 INNER ITERATIONS.
    ------------------------------------------------

 NO OUTPUT CONTROL FOR STRESS PERIOD   42   TIME STEP   22
 
 SOLVING FOR HEAD 
                                                   Max.-Head-Change                         Max.-Flux-Residual
  Residual-Control   Outer-Iter.   Inner-Iter.     Column Row Layer    Maximum-Head-Change  Column Row Layer    Maximum-Flux-Residual          L2-NORM 
          0                 1           2             1    1     1       0.2625372787E-02       1    1    1         0.1362354394E+00      0.2430002378E+00
          0                 2           2             1    1     1      -0.2553773065E-03       1    1    1        -0.1362355230E-01      0.2430002883E-01
          0                 3           1             1    1     1       0.1739024671E-04       1    1    1         0.9536489962E-03      0.1701004189E-02

    ------------------------------------------------
       NWT REQUIRED            3 OUTER ITERATIONS 
       AND A TOTAL OF          5 INNER ITERATIONS.
    ------------------------------------------------

 NO OUTPUT CONTROL FOR STRESS PERIOD   42   TIME STEP   23
 
 SOLVING FOR HEAD 
                                                   Max.-Head-Change                         Max.-Flux-Residual
  Residual-Control   Outer-Iter.   Inner-Iter.     Column Row Layer    Maximum-Head-Change  Column Row Layer    Maximum-Flux-Residual          L2-NORM 
          0                 1           2             1    1     1       0.2623692727E-02       1    1    1         0.1361480663E+00      0.2428532238E+00
          0                 2           2             1    1     1      -0.2552138819E-03       1    1    1        -0.1361481495E-01      0.2428532738E-01
          0                 3           1             1    1     1       0.1737911786E-04       1    1    1         0.9530373772E-03      0.1699973674E-02

    ------------------------------------------------
       NWT REQUIRED            3 OUTER ITERATIONS 
       AND A TOTAL OF          5 INNER ITERATIONS.
    ------------------------------------------------

 NO OUTPUT CONTROL FOR STRESS PERIOD   42   TIME STEP   24
 
 SOLVING FOR HEAD 
                                                   Max.-Head-Change                         Max.-Flux-Residual
  Residual-Control   Outer-Iter.   Inner-Iter.     Column Row Layer    Maximum-Head-Change  Column Row Layer    Maximum-Flux-Residual          L2-NORM 
          0                 1           2             1    1     1       0.2621994280E-02       1    1    1         0.1360597396E+00      0.2427094926E+00
          0                 2           2             1    1     1      -0.2550486686E-03       1    1    1        -0.1360598223E-01      0.2427095437E-01
          0                 3           1             1    1     1       0.1736786759E-04       1    1    1         0.9524190900E-03      0.1698968584E-02

    ------------------------------------------------
       NWT REQUIRED            3 OUTER ITERATIONS 
       AND A TOTAL OF          5 INNER ITERATIONS.
    ------------------------------------------------

 NO OUTPUT CONTROL FOR STRESS PERIOD   42   TIME STEP   25
 
 SOLVING FOR HEAD 
                                                   Max.-Head-Change                         Max.-Flux-Residual
  Residual-Control   Outer-Iter.   Inner-Iter.     Column Row Layer    Maximum-Head-Change  Column Row Layer    Maximum-Flux-Residual          L2-NORM 
          0                 1           2             1    1     1       0.2620324383E-02       1    1    1         0.1359728966E+00      0.2425621870E+00
          0                 2           2             1    1     1      -0.2548862332E-03       1    1    1        -0.1359729792E-01      0.2425622368E-01
          0                 3           1             1    1     1       0.1735680667E-04       1    1    1         0.9518112035E-03      0.1697937542E-02

    ------------------------------------------------
       NWT REQUIRED            3 OUTER ITERATIONS 
       AND A TOTAL OF          5 INNER ITERATIONS.
    ------------------------------------------------

 NO OUTPUT CONTROL FOR STRESS PERIOD   42   TIME STEP   26
 
 SOLVING FOR HEAD 
                                                   Max.-Head-Change                         Max.-Flux-Residual
  Residual-Control   Outer-Iter.   Inner-Iter.     Column Row Layer    Maximum-Head-Change  Column Row Layer    Maximum-Flux-Residual          L2-NORM 
          0                 1           2             1    1     1       0.2618636078E-02       1    1    1         0.1358850967E+00      0.2424206793E+00
          0                 2           2             1    1     1      -0.2547220067E-03       1    1    1        -0.1358851791E-01      0.2424207325E-01
          0                 3           1             1    1     1       0.1734562291E-04       1    1    1         0.9511965866E-03      0.1696950706E-02

    ------------------------------------------------
       NWT REQUIRED            3 OUTER ITERATIONS 
       AND A TOTAL OF          5 INNER ITERATIONS.
    ------------------------------------------------

 NO OUTPUT CONTROL FOR STRESS PERIOD   42   TIME STEP   27
 
 SOLVING FOR HEAD 
                                                   Max.-Head-Change                         Max.-Flux-Residual
  Residual-Control   Outer-Iter.   Inner-Iter.     Column Row Layer    Maximum-Head-Change  Column Row Layer    Maximum-Flux-Residual          L2-NORM 
          0                 1           2             1    1     1       0.2616976281E-02       1    1    1         0.1357987797E+00      0.2422805621E+00
          0                 2           2             1    1     1      -0.2545605533E-03       1    1    1        -0.1357988618E-01      0.2422806120E-01
          0                 3           1             1    1     1       0.1733462849E-04       1    1    1         0.9505923583E-03      0.1695964962E-02

    ------------------------------------------------
       NWT REQUIRED            3 OUTER ITERATIONS 
       AND A TOTAL OF          5 INNER ITERATIONS.
    ------------------------------------------------

 NO OUTPUT CONTROL FOR STRESS PERIOD   42   TIME STEP   28
 
 SOLVING FOR HEAD 
                                                   Max.-Head-Change                         Max.-Flux-Residual
  Residual-Control   Outer-Iter.   Inner-Iter.     Column Row Layer    Maximum-Head-Change  Column Row Layer    Maximum-Flux-Residual          L2-NORM 
          0                 1           2             1    1     1       0.2615298020E-02       1    1    1         0.1357115033E+00      0.2421389930E+00
          0                 2           2             1    1     1      -0.2543973036E-03       1    1    1        -0.1357115851E-01      0.2421390428E-01
          0                 3           1             1    1     1       0.1732351195E-04       1    1    1         0.9499814257E-03      0.1694974477E-02

    ------------------------------------------------
       NWT REQUIRED            3 OUTER ITERATIONS 
       AND A TOTAL OF          5 INNER ITERATIONS.
    ------------------------------------------------

 NO OUTPUT CONTROL FOR STRESS PERIOD   42   TIME STEP   29
 
 SOLVING FOR HEAD 
                                                   Max.-Head-Change                         Max.-Flux-Residual
  Residual-Control   Outer-Iter.   Inner-Iter.     Column Row Layer    Maximum-Head-Change  Column Row Layer    Maximum-Flux-Residual          L2-NORM 
          0                 1           2             1    1     1       0.2613648254E-02       1    1    1         0.1356257072E+00      0.2420035918E+00
          0                 2           2             1    1     1      -0.2542368262E-03       1    1    1        -0.1356257888E-01      0.2420036405E-01
          0                 3           1             1    1     1       0.1731258403E-04       1    1    1         0.9493808607E-03      0.1694026535E-02

    ------------------------------------------------
       NWT REQUIRED            3 OUTER ITERATIONS 
       AND A TOTAL OF          5 INNER ITERATIONS.
    ------------------------------------------------

 NO OUTPUT CONTROL FOR STRESS PERIOD   42   TIME STEP   30



 STREAM LISTING     PERIOD     42   STEP       30

 LAYER ROW COL. STREAM  RCH.  FLOW INTO     FLOW TO   FLOW OUT OF   OVRLND.     DIRECT     STREAM       STREAM     STREAM     STREAM   STREAMBED  STREAMBED
                SEG.NO.  NO.  STRM. RCH.    AQUIFER    STRM. RCH.    RUNOFF     PRECIP       ET          HEAD       DEPTH      WIDTH   CONDCTNC.   GRADIENT

   1    1    1     1     1    4.7249E+01  3.2762E-01   4.6921E+01  0.000E+00  0.000E+00  0.000E+00  1.09443E+03  1.381E+00  1.662E+01  7.477E-02  1.460E+00
   1    2    2     1     2    4.6921E+01  5.0759E-01   4.6413E+01  0.000E+00  0.000E+00  0.000E+00  1.08944E+03  1.379E+00  1.656E+01  1.159E-01  1.460E+00
   1    3    3     1     3    4.6413E+01  4.3309E-01   4.5980E+01  0.000E+00  0.000E+00  0.000E+00  1.08379E+03  1.376E+00  1.650E+01  9.898E-02  1.459E+00
   1    3    4     1     4    4.5980E+01  3.9899E-01   4.5581E+01  0.000E+00  0.000E+00  0.000E+00  1.07878E+03  1.373E+00  1.644E+01  9.124E-02  1.458E+00
   1    4    5     2     1    4.3581E+01  3.6514E-01   4.3216E+01  0.000E+00  0.000E+00  0.000E+00  1.07362E+03  1.681E+00  1.200E+01  7.800E-02  1.560E+00
   1    5    6     2     2    4.3216E+01  2.8042E-01   4.2936E+01  0.000E+00  0.000E+00  0.000E+00  1.06818E+03  1.674E+00  1.200E+01  6.000E-02  1.558E+00
   1    6    6     2     3    4.2936E+01  2.8003E-01   4.2656E+01  0.000E+00  0.000E+00  0.000E+00  1.06346E+03  1.667E+00  1.200E+01  6.000E-02  1.556E+00
   1    7    6     2     4    4.2656E+01  2.7964E-01   4.2376E+01  0.000E+00  0.000E+00  0.000E+00  1.05874E+03  1.661E+00  1.200E+01  6.000E-02  1.554E+00
   1    8    6     2     5    4.2376E+01  2.7924E-01   4.2097E+01  0.000E+00  0.000E+00  0.000E+00  1.05401E+03  1.654E+00  1.200E+01  6.000E-02  1.551E+00
   1    3    5     3     1    2.0000E+00  2.8252E-01   1.7175E+00  0.000E+00  0.000E+00  0.000E+00  1.07555E+03  1.909E+00  9.636E+00  7.227E-02  1.955E+00
   1    3    6     3     2    1.7175E+00  2.4905E-01   1.4684E+00  0.000E+00  0.000E+00  0.000E+00  1.07264E+03  1.727E+00  8.909E+00  6.682E-02  1.864E+00
   1    3    7     3     3    1.4684E+00  1.9718E-01   1.2712E+00  0.000E+00  0.000E+00  0.000E+00  1.06987E+03  1.555E+00  8.218E+00  5.547E-02  1.777E+00
   1    4    8     3     4    1.2712E+00  2.2567E-01   1.0456E+00  0.000E+00  0.000E+00  0.000E+00  1.06682E+03  1.364E+00  7.455E+00  6.709E-02  1.682E+00
   1    5    8     3     5    1.0456E+00  1.5790E-01   8.8768E-01  0.000E+00  0.000E+00  0.000E+00  1.06362E+03  1.164E+00  6.655E+00  4.991E-02  1.582E+00
   1    6    8     3     6    8.8768E-01  5.5980E-02   8.3170E-01  0.000E+00  0.000E+00  0.000E+00  1.06158E+03  1.036E+00  6.145E+00  1.844E-02  1.518E+00
   1    5   10     4     1    1.0000E+01  9.0919E-02   9.9091E+00  0.000E+00  0.000E+00  0.000E+00  1.07836E+03  6.368E-01  1.000E+01  2.500E-02  1.212E+00
   1    5    9     4     2    9.9091E+00  1.8158E-01   9.7275E+00  0.000E+00  0.000E+00  0.000E+00  1.07154E+03  6.315E-01  1.000E+01  5.000E-02  1.211E+00
   1    6    8     4     3    9.7275E+00  1.2689E-01   9.6006E+00  0.000E+00  0.000E+00  0.000E+00  1.06381E+03  6.256E-01  1.000E+01  3.500E-02  1.209E+00
   1    6    8     5     1    1.0432E+01  2.2686E-01   1.0205E+01  0.000E+00  0.000E+00  0.000E+00  1.05868E+03  6.790E-01  1.542E+01  6.166E-02  1.226E+00
   1    7    7     5     2    1.0205E+01  2.7894E-01   9.9265E+00  0.000E+00  0.000E+00  0.000E+00  1.05417E+03  6.732E-01  1.519E+01  7.594E-02  1.224E+00
   1    8    7     5     3    9.9265E+00  1.9221E-01   9.7343E+00  0.000E+00  0.000E+00  0.000E+00  1.04992E+03  6.676E-01  1.497E+01  5.241E-02  1.223E+00
   1    8    6     5     4    9.7343E+00  1.3577E-01   9.5985E+00  0.000E+00  0.000E+00  0.000E+00  1.04691E+03  6.637E-01  1.482E+01  3.706E-02  1.221E+00
   1    9    6     6     1    9.5985E+00  2.2097E-01   9.3776E+00  0.000E+00  0.000E+00  0.000E+00  1.04341E+03  6.828E-01  1.200E+01  6.000E-02  1.228E+00
   1   10    7     6     2    9.3776E+00  2.2039E-01   9.1572E+00  0.000E+00  0.000E+00  0.000E+00  1.03885E+03  6.732E-01  1.200E+01  6.000E-02  1.224E+00
   1   11    7     6     3    9.1572E+00  2.1981E-01   8.9374E+00  0.000E+00  0.000E+00  0.000E+00  1.03430E+03  6.636E-01  1.200E+01  6.000E-02  1.221E+00
   1   12    7     6     4    8.9374E+00  2.1923E-01   8.7181E+00  0.000E+00  0.000E+00  0.000E+00  1.02974E+03  6.539E-01  1.200E+01  6.000E-02  1.218E+00
   1   13    7     6     5    8.7181E+00 -1.1035E-01   8.8285E+00  0.000E+00  0.000E+00  0.000E+00  1.02656E+03  6.514E-01  1.200E+01  2.400E-01 -1.533E-01
   1   14    9     7     1    1.5000E+02  1.3456E+00   1.4865E+02  0.000E+00  0.000E+00  0.000E+00  1.03987E+03  2.288E+00  5.529E+01  5.593E-01  8.020E-01
   1   13    8     7     2    1.4865E+02  1.8507E+00   1.4680E+02  0.000E+00  0.000E+00  0.000E+00  1.03478E+03  2.279E+00  5.526E+01  6.148E-01  1.003E+00
   1   13    7     7     3    1.4680E+02  1.4906E+00   1.4531E+02  0.000E+00  0.000E+00  0.000E+00  1.02969E+03  2.270E+00  5.522E+01  5.584E-01  8.898E-01
   1   13    6     8     1    1.5414E+02  8.4283E-01   1.5330E+02  0.000E+00  0.000E+00  0.000E+00  1.02472E+03  2.843E+00  4.122E+01  4.201E-01  6.688E-01
   1   13    5     8     2    1.5330E+02  1.1246E-01   1.5319E+02  0.000E+00  0.000E+00  0.000E+00  1.01846E+03  2.840E+00  4.117E+01  4.196E-01  8.935E-02
   1   13    4     8     3    1.5319E+02 -2.6391E+00   1.5583E+02  0.000E+00  0.000E+00  0.000E+00  1.01222E+03  2.848E+00  4.130E+01  4.209E+00 -2.090E-01
   1   13    3     8     4    1.5583E+02 -3.7260E+00   1.5955E+02  0.000E+00  0.000E+00  0.000E+00  1.00600E+03  2.870E+00  4.162E+01  4.241E+00 -2.929E-01
   1   13    2     8     5    1.5955E+02 -2.5922E+00   1.6214E+02  0.000E+00  0.000E+00  0.000E+00  9.99767E+02  2.892E+00  4.193E+01  4.273E+00 -2.022E-01
   1   13    1     8     6    1.6214E+02 -1.9791E+00   1.6412E+02  0.000E+00  0.000E+00  0.000E+00  9.94782E+02  2.907E+00  4.215E+01  2.577E+00 -2.560E-01
   1    8    6     9     1    4.2097E+01  0.0000E+00   4.2097E+01  0.000E+00  0.000E+00  0.000E+00  1.08412E+03  5.368E+00  4.000E+00  0.000E+00  2.789E+00
   1    8    5     9     2    4.2097E+01  0.0000E+00   4.2097E+01  0.000E+00  0.000E+00  0.000E+00  1.08362E+03  5.368E+00  4.000E+00  0.000E+00  2.789E+00





UNSATURATED ZONE PACKAGE VOLUMETRIC BUDGET FOR  TIME STEP    30 STRESS PERIOD   42
  ------------------------------------------------------------------------------



     CUMULATIVE VOLUMES      L**3       RATES FOR THIS TIME STEP      L**3/T
     ------------------                 ------------------------

           IN:                                      IN:
           ---                                      ---
        INFILTRATION =    91459143.7824          INFILTRATION =           0.8475

          OUT:                                     OUT:
          ----                                     ----
              UZF ET =    90634128.5651                UZF ET =           0.8475
        UZF RECHARGE =       73224.0000          UZF RECHARGE =       0.0000E+00

            IN - OUT =      751791.2173              IN - OUT =       0.0000E+00

          STORAGE:                                 STORAGE:
          --------                                 --------
      STORAGE CHANGE =      751791.5911        STORAGE CHANGE =      -4.9797E-16

 PERCENT DISCREPANCY IS DIFFERENCE BETWEEN IN-OUT MINUS CHANGE IN STORAGE
 DIVIDED BY THE AVERAGE OF IN AND OUT TIMES 100

 PERCENT DISCREPANCY =           0.00     PERCENT DISCREPANCY =           0.00






1
  VOLUMETRIC BUDGET FOR ENTIRE MODEL AT END OF TIME STEP   30, STRESS PERIOD  42
  ------------------------------------------------------------------------------

     CUMULATIVE VOLUMES      L**3       RATES FOR THIS TIME STEP      L**3/T
     ------------------                 ------------------------

           IN:                                      IN:
           ---                                      ---
             STORAGE     =    31343432.0000               STORAGE     =       7.0172E-02
       CONSTANT HEAD     =           0.0000         CONSTANT HEAD     =           0.0000
     HEAD DEP BOUNDS     =    30883022.0000       HEAD DEP BOUNDS     =           0.2864
      STREAM LEAKAGE     =  1266777472.0000        STREAM LEAKAGE     =          12.0759
        UZF RECHARGE     =       73223.9531          UZF RECHARGE     =           0.0000
               GW ET     =           0.0000                 GW ET     =           0.0000
     SURFACE LEAKAGE     =           0.0000       SURFACE LEAKAGE     =           0.0000

                TOTAL IN =  1329077120.0000                  TOTAL IN =          12.4325

          OUT:                                     OUT:
          ----                                     ----
             STORAGE     =   103654024.0000               STORAGE     =           1.0990
       CONSTANT HEAD     =           0.0000         CONSTANT HEAD     =           0.0000
     HEAD DEP BOUNDS     =    30963196.0000       HEAD DEP BOUNDS     =           0.2869
      STREAM LEAKAGE     =  1194478976.0000        STREAM LEAKAGE     =          11.0469
        UZF RECHARGE     =           0.0000          UZF RECHARGE     =           0.0000
               GW ET     =           0.0000                 GW ET     =           0.0000
     SURFACE LEAKAGE     =           0.0000       SURFACE LEAKAGE     =           0.0000

               TOTAL OUT =  1329096192.0000                 TOTAL OUT =          12.4328

                IN - OUT =      -19072.0000                  IN - OUT =      -2.8992E-04

     PERCENT DISCREPANCY =          -0.00         PERCENT DISCREPANCY =          -0.00






         TIME SUMMARY AT END OF TIME STEP   30 IN STRESS PERIOD   42
                    SECONDS     MINUTES      HOURS       DAYS        YEARS
                    -----------------------------------------------------------
   TIME STEP LENGTH  87667.      1461.1      24.352      1.0147     2.77799E-03
 STRESS PERIOD TIME 2.63000E+06  43833.      730.56      30.440     8.33397E-02
         TOTAL TIME 1.07916E+08 1.79859E+06  29977.      1249.0      3.4196    
1
1
                            STRESS PERIOD NO.   43, LENGTH =   2630000.    
                            -----------------------------------------------

                              NUMBER OF TIME STEPS =    30

                               MULTIPLIER FOR DELT =     1.000

                            INITIAL TIME STEP SIZE =   87666.66    

 REUSING NON-PARAMETER GHB CELLS FROM LAST STRESS PERIOD

      2 GHB CELLS

 REUSING STREAM SEGMENT DATA FROM LAST STRESS PERIOD



            AREAL INFILTRATION RATE
 READING ON UNIT   19 WITH FORMAT: (FREE)              

            1           2           3           4           5           6           7           8           9          10
 ........................................................................................................................
   1   1.0000E-10  2.0000E-10   0.000       0.000       0.000       0.000       0.000       0.000       0.000       0.000    
   2   2.0000E-10  1.0000E-10  2.0000E-10   0.000       0.000      8.0000E-10  8.0000E-10  5.0000E-10   0.000       0.000    
   3    0.000      5.0000E-10  1.0000E-10  1.0000E-10  8.0000E-10  8.0000E-10  5.0000E-10  5.0000E-10   0.000       0.000    
   4   8.0000E-10  5.0000E-10  1.0000E-10  1.0000E-10  1.0000E-10  1.0000E-10  1.0000E-10  1.0000E-10  2.0000E-10   0.000    
   5   8.0000E-10  5.0000E-10  1.0000E-10  1.0000E-10  1.0000E-10  1.0000E-10  1.0000E-10  1.0000E-10  1.0000E-10  1.0000E-10
   6   8.0000E-10  5.0000E-10  5.0000E-10  2.0000E-10  2.0000E-10  1.0000E-10  1.0000E-10  1.0000E-10  1.0000E-10  5.0000E-10
   7   8.0000E-10  5.0000E-10  5.0000E-10  2.0000E-10  2.0000E-10  1.0000E-10  1.0000E-10  2.0000E-10  2.0000E-10   0.000    
   8    0.000      5.0000E-10  5.0000E-10  2.0000E-10  2.0000E-10  1.0000E-10  1.0000E-10  2.0000E-10  5.0000E-10   0.000    
   9    0.000      5.0000E-10  5.0000E-10  2.0000E-10  2.0000E-10  1.0000E-10  1.0000E-10  2.0000E-10  5.0000E-10   0.000    
  10    0.000      5.0000E-10  5.0000E-10  2.0000E-10  2.0000E-10  1.0000E-10  1.0000E-10  2.0000E-10  5.0000E-10  8.0000E-10
  11    0.000      1.0000E-10  1.0000E-10  1.0000E-10  1.0000E-10  1.0000E-10  1.0000E-10  2.0000E-10  5.0000E-10   0.000    
  12   1.0000E-10  1.0000E-10  1.0000E-10  1.0000E-10  1.0000E-10  1.0000E-10  1.0000E-10  1.0000E-10  2.0000E-10   0.000    
  13   1.0000E-10  1.0000E-10  2.0000E-10  2.0000E-10  2.0000E-10  2.0000E-10  2.0000E-10  1.0000E-10  1.0000E-10   0.000    
  14    0.000      2.0000E-10  5.0000E-10  5.0000E-10  5.0000E-10  5.0000E-10  5.0000E-10  2.0000E-10  1.0000E-10   0.000    
  15    0.000       0.000      8.0000E-10  8.0000E-10  8.0000E-10  8.0000E-10   0.000       0.000       0.000       0.000    

                  ET RATE =  1.500000E-07

 USING ET EXTINCTION DEPTH FROM PREVIOUS STRESS PERIOD. CURRENT PERIOD IS:      43

 USING EXTINCTION WATER CONTENT FROM PREVIOUS STRESS PERIOD. CURRENT PERIOD IS:      43

 USING AIR ENTRY PRESSURE FROM PREVIOUS STRESS PERIOD. CURRENT PERIOD IS:      43

 USING ROOT PRESSURE HEAD FROM PREVIOUS STRESS PERIOD. CURRENT PERIOD IS:      43

 USING ROOT ACTIVITY FROM PREVIOUS STRESS PERIOD. CURRENT PERIOD IS:      43
 
 SOLVING FOR HEAD 
                                                   Max.-Head-Change                         Max.-Flux-Residual
  Residual-Control   Outer-Iter.   Inner-Iter.     Column Row Layer    Maximum-Head-Change  Column Row Layer    Maximum-Flux-Residual          L2-NORM 
          0                 1           2             1    1     1       0.2603656773E-02       1    1    1         0.1351065778E+00      0.2410525191E+00
          0                 2           2             1    1     1      -0.2532649259E-03       1    1    1        -0.1351066582E-01      0.2410525651E-01
          0                 3           1             1    1     1       0.1724640143E-04       1    1    1         0.9457469523E-03      0.1687368567E-02

    ------------------------------------------------
       NWT REQUIRED            3 OUTER ITERATIONS 
       AND A TOTAL OF          5 INNER ITERATIONS.
    ------------------------------------------------

 NO OUTPUT CONTROL FOR STRESS PERIOD   43   TIME STEP    1
 
 SOLVING FOR HEAD 
                                                   Max.-Head-Change                         Max.-Flux-Residual
  Residual-Control   Outer-Iter.   Inner-Iter.     Column Row Layer    Maximum-Head-Change  Column Row Layer    Maximum-Flux-Residual          L2-NORM 
          0                 1           2             1    1     1       0.2379753937E-02       1    1    1         0.1234751783E+00      0.2205390768E+00
          0                 2           2             1    1     1      -0.2314852509E-03       1    1    1        -0.1234752359E-01      0.2205391134E-01
          0                 3           1             1    1     1       0.1576328671E-04       1    1    1         0.8643269791E-03      0.1543774558E-02

    ------------------------------------------------
       NWT REQUIRED            3 OUTER ITERATIONS 
       AND A TOTAL OF          5 INNER ITERATIONS.
    ------------------------------------------------

 NO OUTPUT CONTROL FOR STRESS PERIOD   43   TIME STEP    2
 
 SOLVING FOR HEAD 
                                                   Max.-Head-Change                         Max.-Flux-Residual
  Residual-Control   Outer-Iter.   Inner-Iter.     Column Row Layer    Maximum-Head-Change  Column Row Layer    Maximum-Flux-Residual          L2-NORM 
          0                 1           2             1    1     1       0.2378485931E-02       1    1    1         0.1234092679E+00      0.2203912847E+00
          0                 2           2             1    1     1      -0.2313619080E-03       1    1    1        -0.1234093253E-01      0.2203913225E-01
          0                 3           1             1    1     1       0.1575488718E-04       1    1    1         0.8638655825E-03      0.1542739908E-02

    ------------------------------------------------
       NWT REQUIRED            3 OUTER ITERATIONS 
       AND A TOTAL OF          5 INNER ITERATIONS.
    ------------------------------------------------

 NO OUTPUT CONTROL FOR STRESS PERIOD   43   TIME STEP    3
 
 SOLVING FOR HEAD 
                                                   Max.-Head-Change                         Max.-Flux-Residual
  Residual-Control   Outer-Iter.   Inner-Iter.     Column Row Layer    Maximum-Head-Change  Column Row Layer    Maximum-Flux-Residual          L2-NORM 
          0                 1           2             1    1     1       0.2377244609E-02       1    1    1         0.1233447433E+00      0.2202451067E+00
          0                 2           2             1    1     1      -0.2312411611E-03       1    1    1        -0.1233448006E-01      0.2202451442E-01
          0                 3           1             1    1     1       0.1574666515E-04       1    1    1         0.8634139200E-03      0.1541717034E-02

    ------------------------------------------------
       NWT REQUIRED            3 OUTER ITERATIONS 
       AND A TOTAL OF          5 INNER ITERATIONS.
    ------------------------------------------------

 NO OUTPUT CONTROL FOR STRESS PERIOD   43   TIME STEP    4
 
 SOLVING FOR HEAD 
                                                   Max.-Head-Change                         Max.-Flux-Residual
  Residual-Control   Outer-Iter.   Inner-Iter.     Column Row Layer    Maximum-Head-Change  Column Row Layer    Maximum-Flux-Residual          L2-NORM 
          0                 1           2             1    1     1       0.2376006419E-02       1    1    1         0.1232803830E+00      0.2201013704E+00
          0                 2           2             1    1     1      -0.2311207190E-03       1    1    1        -0.1232804403E-01      0.2201014077E-01
          0                 3           1             1    1     1       0.1573846324E-04       1    1    1         0.8629633965E-03      0.1540710869E-02

    ------------------------------------------------
       NWT REQUIRED            3 OUTER ITERATIONS 
       AND A TOTAL OF          5 INNER ITERATIONS.
    ------------------------------------------------

 NO OUTPUT CONTROL FOR STRESS PERIOD   43   TIME STEP    5
 
 SOLVING FOR HEAD 
                                                   Max.-Head-Change                         Max.-Flux-Residual
  Residual-Control   Outer-Iter.   Inner-Iter.     Column Row Layer    Maximum-Head-Change  Column Row Layer    Maximum-Flux-Residual          L2-NORM 
          0                 1           2             1    1     1       0.2374747920E-02       1    1    1         0.1232149657E+00      0.2199689657E+00
          0                 2           2             1    1     1      -0.2309983009E-03       1    1    1        -0.1232150229E-01      0.2199690029E-01
          0                 3           1             1    1     1       0.1573012690E-04       1    1    1         0.8625054556E-03      0.1539783708E-02

    ------------------------------------------------
       NWT REQUIRED            3 OUTER ITERATIONS 
       AND A TOTAL OF          5 INNER ITERATIONS.
    ------------------------------------------------

 NO OUTPUT CONTROL FOR STRESS PERIOD   43   TIME STEP    6
 
 SOLVING FOR HEAD 
                                                   Max.-Head-Change                         Max.-Flux-Residual
  Residual-Control   Outer-Iter.   Inner-Iter.     Column Row Layer    Maximum-Head-Change  Column Row Layer    Maximum-Flux-Residual          L2-NORM 
          0                 1           2             1    1     1       0.2373516050E-02       1    1    1         0.1231509342E+00      0.2198437952E+00
          0                 2           2             1    1     1      -0.2308784731E-03       1    1    1        -0.1231509910E-01      0.2198438319E-01
          0                 3           1             1    1     1       0.1572196711E-04       1    1    1         0.8620572493E-03      0.1538907524E-02

    ------------------------------------------------
       NWT REQUIRED            3 OUTER ITERATIONS 
       AND A TOTAL OF          5 INNER ITERATIONS.
    ------------------------------------------------

 NO OUTPUT CONTROL FOR STRESS PERIOD   43   TIME STEP    7
 
 SOLVING FOR HEAD 
                                                   Max.-Head-Change                         Max.-Flux-Residual
  Residual-Control   Outer-Iter.   Inner-Iter.     Column Row Layer    Maximum-Head-Change  Column Row Layer    Maximum-Flux-Residual          L2-NORM 
          0                 1           2             1    1     1       0.2372287280E-02       1    1    1         0.1230870640E+00      0.2197188881E+00
          0                 2           2             1    1     1      -0.2307589475E-03       1    1    1        -0.1230871210E-01      0.2197189245E-01
          0                 3           1             1    1     1       0.1571382815E-04       1    1    1         0.8616101606E-03      0.1538033297E-02

    ------------------------------------------------
       NWT REQUIRED            3 OUTER ITERATIONS 
       AND A TOTAL OF          5 INNER ITERATIONS.
    ------------------------------------------------

 NO OUTPUT CONTROL FOR STRESS PERIOD   43   TIME STEP    8
 
 SOLVING FOR HEAD 
                                                   Max.-Head-Change                         Max.-Flux-Residual
  Residual-Control   Outer-Iter.   Inner-Iter.     Column Row Layer    Maximum-Head-Change  Column Row Layer    Maximum-Flux-Residual          L2-NORM 
          0                 1           2             1    1     1       0.2371038147E-02       1    1    1         0.1230221349E+00      0.2195944326E+00
          0                 2           2             1    1     1      -0.2306374405E-03       1    1    1        -0.1230221916E-01      0.2195944693E-01
          0                 3           1             1    1     1       0.1570555382E-04       1    1    1         0.8611556644E-03      0.1537161948E-02

    ------------------------------------------------
       NWT REQUIRED            3 OUTER ITERATIONS 
       AND A TOTAL OF          5 INNER ITERATIONS.
    ------------------------------------------------

 NO OUTPUT CONTROL FOR STRESS PERIOD   43   TIME STEP    9
 
 SOLVING FOR HEAD 
                                                   Max.-Head-Change                         Max.-Flux-Residual
  Residual-Control   Outer-Iter.   Inner-Iter.     Column Row Layer    Maximum-Head-Change  Column Row Layer    Maximum-Flux-Residual          L2-NORM 
          0                 1           2             1    1     1       0.2369815633E-02       1    1    1         0.1229585893E+00      0.2194756042E+00
          0                 2           2             1    1     1      -0.2305185231E-03       1    1    1        -0.1229586458E-01      0.2194756419E-01
          0                 3           1             1    1     1       0.1569745604E-04       1    1    1         0.8607108363E-03      0.1536330616E-02

    ------------------------------------------------
       NWT REQUIRED            3 OUTER ITERATIONS 
       AND A TOTAL OF          5 INNER ITERATIONS.
    ------------------------------------------------

 NO OUTPUT CONTROL FOR STRESS PERIOD   43   TIME STEP   10
 
 SOLVING FOR HEAD 
                                                   Max.-Head-Change                         Max.-Flux-Residual
  Residual-Control   Outer-Iter.   Inner-Iter.     Column Row Layer    Maximum-Head-Change  Column Row Layer    Maximum-Flux-Residual          L2-NORM 
          0                 1           2             1    1     1       0.2368596187E-02       1    1    1         0.1228952042E+00      0.2193598668E+00
          0                 2           2             1    1     1      -0.2303999040E-03       1    1    1        -0.1228952606E-01      0.2193599018E-01
          0                 3           1             1    1     1       0.1568937862E-04       1    1    1         0.8602671414E-03      0.1535520030E-02

    ------------------------------------------------
       NWT REQUIRED            3 OUTER ITERATIONS 
       AND A TOTAL OF          5 INNER ITERATIONS.
    ------------------------------------------------

 NO OUTPUT CONTROL FOR STRESS PERIOD   43   TIME STEP   11
 
 SOLVING FOR HEAD 
                                                   Max.-Head-Change                         Max.-Flux-Residual
  Residual-Control   Outer-Iter.   Inner-Iter.     Column Row Layer    Maximum-Head-Change  Column Row Layer    Maximum-Flux-Residual          L2-NORM 
          0                 1           2             1    1     1       0.2367356342E-02       1    1    1         0.1228307584E+00      0.2192476576E+00
          0                 2           2             1    1     1      -0.2302793004E-03       1    1    1        -0.1228308145E-01      0.2192476923E-01
          0                 3           1             1    1     1       0.1568116582E-04       1    1    1         0.8598160170E-03      0.1534735725E-02

    ------------------------------------------------
       NWT REQUIRED            3 OUTER ITERATIONS 
       AND A TOTAL OF          5 INNER ITERATIONS.
    ------------------------------------------------

 NO OUTPUT CONTROL FOR STRESS PERIOD   43   TIME STEP   12
 
 SOLVING FOR HEAD 
                                                   Max.-Head-Change                         Max.-Flux-Residual
  Residual-Control   Outer-Iter.   Inner-Iter.     Column Row Layer    Maximum-Head-Change  Column Row Layer    Maximum-Flux-Residual          L2-NORM 
          0                 1           2             1    1     1       0.2366143089E-02       1    1    1         0.1227676945E+00      0.2191337340E+00
          0                 2           2             1    1     1      -0.2301612841E-03       1    1    1        -0.1227677505E-01      0.2191337718E-01
          0                 3           1             1    1     1       0.1567312982E-04       1    1    1         0.8593745924E-03      0.1533937621E-02

    ------------------------------------------------
       NWT REQUIRED            3 OUTER ITERATIONS 
       AND A TOTAL OF          5 INNER ITERATIONS.
    ------------------------------------------------

 NO OUTPUT CONTROL FOR STRESS PERIOD   43   TIME STEP   13
 
 SOLVING FOR HEAD 
                                                   Max.-Head-Change                         Max.-Flux-Residual
  Residual-Control   Outer-Iter.   Inner-Iter.     Column Row Layer    Maximum-Head-Change  Column Row Layer    Maximum-Flux-Residual          L2-NORM 
          0                 1           2             1    1     1       0.2364932872E-02       1    1    1         0.1227047896E+00      0.2190249282E+00
          0                 2           2             1    1     1      -0.2300435625E-03       1    1    1        -0.1227048454E-01      0.2190249628E-01
          0                 3           1             1    1     1       0.1566511275E-04       1    1    1         0.8589342273E-03      0.1533175494E-02

    ------------------------------------------------
       NWT REQUIRED            3 OUTER ITERATIONS 
       AND A TOTAL OF          5 INNER ITERATIONS.
    ------------------------------------------------

 NO OUTPUT CONTROL FOR STRESS PERIOD   43   TIME STEP   14
 
 SOLVING FOR HEAD 
                                                   Max.-Head-Change                         Max.-Flux-Residual
  Residual-Control   Outer-Iter.   Inner-Iter.     Column Row Layer    Maximum-Head-Change  Column Row Layer    Maximum-Flux-Residual          L2-NORM 
          0                 1           2             1    1     1       0.2363702221E-02       1    1    1         0.1226408221E+00      0.2189188288E+00
          0                 2           2             1    1     1      -0.2299238534E-03       1    1    1        -0.1226408778E-01      0.2189188682E-01
          0                 3           1             1    1     1       0.1565696077E-04       1    1    1         0.8584864501E-03      0.1532433066E-02

    ------------------------------------------------
       NWT REQUIRED            3 OUTER ITERATIONS 
       AND A TOTAL OF          5 INNER ITERATIONS.
    ------------------------------------------------

 NO OUTPUT CONTROL FOR STRESS PERIOD   43   TIME STEP   15
 
 SOLVING FOR HEAD 
                                                   Max.-Head-Change                         Max.-Flux-Residual
  Residual-Control   Outer-Iter.   Inner-Iter.     Column Row Layer    Maximum-Head-Change  Column Row Layer    Maximum-Flux-Residual          L2-NORM 
          0                 1           2             1    1     1       0.2362498134E-02       1    1    1         0.1225782351E+00      0.2188142132E+00
          0                 2           2             1    1     1      -0.2298067288E-03       1    1    1        -0.1225782908E-01      0.2188142489E-01
          0                 3           1             1    1     1       0.1564898583E-04       1    1    1         0.8580483605E-03      0.1531700493E-02

    ------------------------------------------------
       NWT REQUIRED            3 OUTER ITERATIONS 
       AND A TOTAL OF          5 INNER ITERATIONS.
    ------------------------------------------------

 NO OUTPUT CONTROL FOR STRESS PERIOD   43   TIME STEP   16
 
 SOLVING FOR HEAD 
                                                   Max.-Head-Change                         Max.-Flux-Residual
  Residual-Control   Outer-Iter.   Inner-Iter.     Column Row Layer    Maximum-Head-Change  Column Row Layer    Maximum-Flux-Residual          L2-NORM 
          0                 1           2             1    1     1       0.2361273588E-02       1    1    1         0.1225145853E+00      0.2187109950E+00
          0                 2           2             1    1     1      -0.2296876131E-03       1    1    1        -0.1225146406E-01      0.2187110326E-01
          0                 3           1             1    1     1       0.1564087409E-04       1    1    1         0.8576027974E-03      0.1530978050E-02

    ------------------------------------------------
       NWT REQUIRED            3 OUTER ITERATIONS 
       AND A TOTAL OF          5 INNER ITERATIONS.
    ------------------------------------------------

 NO OUTPUT CONTROL FOR STRESS PERIOD   43   TIME STEP   17
 
 SOLVING FOR HEAD 
                                                   Max.-Head-Change                         Max.-Flux-Residual
  Residual-Control   Outer-Iter.   Inner-Iter.     Column Row Layer    Maximum-Head-Change  Column Row Layer    Maximum-Flux-Residual          L2-NORM 
          0                 1           2             1    1     1       0.2360075571E-02       1    1    1         0.1224523151E+00      0.2186073685E+00
          0                 2           2             1    1     1      -0.2295710790E-03       1    1    1        -0.1224523704E-01      0.2186074046E-01
          0                 3           1             1    1     1       0.1563293867E-04       1    1    1         0.8571669114E-03      0.1530252607E-02

    ------------------------------------------------
       NWT REQUIRED            3 OUTER ITERATIONS 
       AND A TOTAL OF          5 INNER ITERATIONS.
    ------------------------------------------------

 NO OUTPUT CONTROL FOR STRESS PERIOD   43   TIME STEP   18
 
 SOLVING FOR HEAD 
                                                   Max.-Head-Change                         Max.-Flux-Residual
  Residual-Control   Outer-Iter.   Inner-Iter.     Column Row Layer    Maximum-Head-Change  Column Row Layer    Maximum-Flux-Residual          L2-NORM 
          0                 1           2             1    1     1       0.2358880556E-02       1    1    1         0.1223902001E+00      0.2185064693E+00
          0                 2           2             1    1     1      -0.2294548366E-03       1    1    1        -0.1223902554E-01      0.2185065082E-01
          0                 3           1             1    1     1       0.1562502314E-04       1    1    1         0.8567321137E-03      0.1529546188E-02

    ------------------------------------------------
       NWT REQUIRED            3 OUTER ITERATIONS 
       AND A TOTAL OF          5 INNER ITERATIONS.
    ------------------------------------------------

 NO OUTPUT CONTROL FOR STRESS PERIOD   43   TIME STEP   19
 
 SOLVING FOR HEAD 
                                                   Max.-Head-Change                         Max.-Flux-Residual
  Residual-Control   Outer-Iter.   Inner-Iter.     Column Row Layer    Maximum-Head-Change  Column Row Layer    Maximum-Flux-Residual          L2-NORM 
          0                 1           2             1    1     1       0.2357665046E-02       1    1    1         0.1223270203E+00      0.2184067030E+00
          0                 2           2             1    1     1      -0.2293366004E-03       1    1    1        -0.1223270755E-01      0.2184067381E-01
          0                 3           1             1    1     1       0.1561697151E-04       1    1    1         0.8562898486E-03      0.1528847915E-02

    ------------------------------------------------
       NWT REQUIRED            3 OUTER ITERATIONS 
       AND A TOTAL OF          5 INNER ITERATIONS.
    ------------------------------------------------

 NO OUTPUT CONTROL FOR STRESS PERIOD   43   TIME STEP   20
 
 SOLVING FOR HEAD 
                                                   Max.-Head-Change                         Max.-Flux-Residual
  Residual-Control   Outer-Iter.   Inner-Iter.     Column Row Layer    Maximum-Head-Change  Column Row Layer    Maximum-Flux-Residual          L2-NORM 
          0                 1           2             1    1     1       0.2356476038E-02       1    1    1         0.1222652189E+00      0.2183081905E+00
          0                 2           2             1    1     1      -0.2292209421E-03       1    1    1        -0.1222652739E-01      0.2183082227E-01
          0                 3           1             1    1     1       0.1560909573E-04       1    1    1         0.8558572428E-03      0.1528158399E-02

    ------------------------------------------------
       NWT REQUIRED            3 OUTER ITERATIONS 
       AND A TOTAL OF          5 INNER ITERATIONS.
    ------------------------------------------------

 NO OUTPUT CONTROL FOR STRESS PERIOD   43   TIME STEP   21
 
 SOLVING FOR HEAD 
                                                   Max.-Head-Change                         Max.-Flux-Residual
  Residual-Control   Outer-Iter.   Inner-Iter.     Column Row Layer    Maximum-Head-Change  Column Row Layer    Maximum-Flux-Residual          L2-NORM 
          0                 1           2             1    1     1       0.2355266502E-02       1    1    1         0.1222023504E+00      0.2182112706E+00
          0                 2           2             1    1     1      -0.2291032869E-03       1    1    1        -0.1222024052E-01      0.2182113052E-01
          0                 3           1             1    1     1       0.1560108387E-04       1    1    1         0.8554171630E-03      0.1527479794E-02

    ------------------------------------------------
       NWT REQUIRED            3 OUTER ITERATIONS 
       AND A TOTAL OF          5 INNER ITERATIONS.
    ------------------------------------------------

 NO OUTPUT CONTROL FOR STRESS PERIOD   43   TIME STEP   22
 
 SOLVING FOR HEAD 
                                                   Max.-Head-Change                         Max.-Flux-Residual
  Residual-Control   Outer-Iter.   Inner-Iter.     Column Row Layer    Maximum-Head-Change  Column Row Layer    Maximum-Flux-Residual          L2-NORM 
          0                 1           2             1    1     1       0.2354083477E-02       1    1    1         0.1221408588E+00      0.2181155431E+00
          0                 2           2             1    1     1      -0.2289882103E-03       1    1    1        -0.1221409134E-01      0.2181155799E-01
          0                 3           1             1    1     1       0.1559324762E-04       1    1    1         0.8549867214E-03      0.1526810187E-02

    ------------------------------------------------
       NWT REQUIRED            3 OUTER ITERATIONS 
       AND A TOTAL OF          5 INNER ITERATIONS.
    ------------------------------------------------

 NO OUTPUT CONTROL FOR STRESS PERIOD   43   TIME STEP   23
 
 SOLVING FOR HEAD 
                                                   Max.-Head-Change                         Max.-Flux-Residual
  Residual-Control   Outer-Iter.   Inner-Iter.     Column Row Layer    Maximum-Head-Change  Column Row Layer    Maximum-Flux-Residual          L2-NORM 
          0                 1           2             1    1     1       0.2352879901E-02       1    1    1         0.1220783005E+00      0.2180165869E+00
          0                 2           2             1    1     1      -0.2288711349E-03       1    1    1        -0.1220783549E-01      0.2180166230E-01
          0                 3           1             1    1     1       0.1558527481E-04       1    1    1         0.8545487896E-03      0.1526117071E-02

    ------------------------------------------------
       NWT REQUIRED            3 OUTER ITERATIONS 
       AND A TOTAL OF          5 INNER ITERATIONS.
    ------------------------------------------------

 NO OUTPUT CONTROL FOR STRESS PERIOD   43   TIME STEP   24
 
 SOLVING FOR HEAD 
                                                   Max.-Head-Change                         Max.-Flux-Residual
  Residual-Control   Outer-Iter.   Inner-Iter.     Column Row Layer    Maximum-Head-Change  Column Row Layer    Maximum-Flux-Residual          L2-NORM 
          0                 1           2             1    1     1       0.2351702818E-02       1    1    1         0.1220171180E+00      0.2179246031E+00
          0                 2           2             1    1     1      -0.2287566368E-03       1    1    1        -0.1220171724E-01      0.2179246414E-01
          0                 3           1             1    1     1       0.1557747832E-04       1    1    1         0.8541205310E-03      0.1525473829E-02

    ------------------------------------------------
       NWT REQUIRED            3 OUTER ITERATIONS 
       AND A TOTAL OF          5 INNER ITERATIONS.
    ------------------------------------------------

 NO OUTPUT CONTROL FOR STRESS PERIOD   43   TIME STEP   25
 
 SOLVING FOR HEAD 
                                                   Max.-Head-Change                         Max.-Flux-Residual
  Residual-Control   Outer-Iter.   Inner-Iter.     Column Row Layer    Maximum-Head-Change  Column Row Layer    Maximum-Flux-Residual          L2-NORM 
          0                 1           2             1    1     1       0.2350505142E-02       1    1    1         0.1219548676E+00      0.2178304986E+00
          0                 2           2             1    1     1      -0.2286401353E-03       1    1    1        -0.1219549218E-01      0.2178305380E-01
          0                 3           1             1    1     1       0.1556954455E-04       1    1    1         0.8536847630E-03      0.1524814798E-02

    ------------------------------------------------
       NWT REQUIRED            3 OUTER ITERATIONS 
       AND A TOTAL OF          5 INNER ITERATIONS.
    ------------------------------------------------

 NO OUTPUT CONTROL FOR STRESS PERIOD   43   TIME STEP   26
 
 SOLVING FOR HEAD 
                                                   Max.-Head-Change                         Max.-Flux-Residual
  Residual-Control   Outer-Iter.   Inner-Iter.     Column Row Layer    Maximum-Head-Change  Column Row Layer    Maximum-Flux-Residual          L2-NORM 
          0                 1           2             1    1     1       0.2349333959E-02       1    1    1         0.1218939913E+00      0.2177337430E+00
          0                 2           2             1    1     1      -0.2285262109E-03       1    1    1        -0.1218940453E-01      0.2177337796E-01
          0                 3           1             1    1     1       0.1556178711E-04       1    1    1         0.8532586366E-03      0.1524137372E-02

    ------------------------------------------------
       NWT REQUIRED            3 OUTER ITERATIONS 
       AND A TOTAL OF          5 INNER ITERATIONS.
    ------------------------------------------------

 NO OUTPUT CONTROL FOR STRESS PERIOD   43   TIME STEP   27
 
 SOLVING FOR HEAD 
                                                   Max.-Head-Change                         Max.-Flux-Residual
  Residual-Control   Outer-Iter.   Inner-Iter.     Column Row Layer    Maximum-Head-Change  Column Row Layer    Maximum-Flux-Residual          L2-NORM 
          0                 1           2             1    1     1       0.2348142161E-02       1    1    1         0.1218320466E+00      0.2176448676E+00
          0                 2           2             1    1     1      -0.2284102814E-03       1    1    1        -0.1218321006E-01      0.2176449021E-01
          0                 3           1             1    1     1       0.1555389264E-04       1    1    1         0.8528250113E-03      0.1523514967E-02

    ------------------------------------------------
       NWT REQUIRED            3 OUTER ITERATIONS 
       AND A TOTAL OF          5 INNER ITERATIONS.
    ------------------------------------------------

 NO OUTPUT CONTROL FOR STRESS PERIOD   43   TIME STEP   28
 
 SOLVING FOR HEAD 
                                                   Max.-Head-Change                         Max.-Flux-Residual
  Residual-Control   Outer-Iter.   Inner-Iter.     Column Row Layer    Maximum-Head-Change  Column Row Layer    Maximum-Flux-Residual          L2-NORM 
          0                 1           2             1    1     1       0.2346976792E-02       1    1    1         0.1217714751E+00      0.2175495482E+00
          0                 2           2             1    1     1      -0.2282969224E-03       1    1    1        -0.1217715289E-01      0.2175495877E-01
          0                 3           1             1    1     1       0.1554617307E-04       1    1    1         0.8524010142E-03      0.1522848406E-02

    ------------------------------------------------
       NWT REQUIRED            3 OUTER ITERATIONS 
       AND A TOTAL OF          5 INNER ITERATIONS.
    ------------------------------------------------

 NO OUTPUT CONTROL FOR STRESS PERIOD   43   TIME STEP   29
 
 SOLVING FOR HEAD 
                                                   Max.-Head-Change                         Max.-Flux-Residual
  Residual-Control   Outer-Iter.   Inner-Iter.     Column Row Layer    Maximum-Head-Change  Column Row Layer    Maximum-Flux-Residual          L2-NORM 
          0                 1           2             1    1     1       0.2345790830E-02       1    1    1         0.1217098318E+00      0.2174612073E+00
          0                 2           2             1    1     1      -0.2281815605E-03       1    1    1        -0.1217098855E-01      0.2174612420E-01
          0                 3           1             1    1     1       0.1553831741E-04       1    1    1         0.8519695033E-03      0.1522229639E-02

    ------------------------------------------------
       NWT REQUIRED            3 OUTER ITERATIONS 
       AND A TOTAL OF          5 INNER ITERATIONS.
    ------------------------------------------------

 NO OUTPUT CONTROL FOR STRESS PERIOD   43   TIME STEP   30



 STREAM LISTING     PERIOD     43   STEP       30

 LAYER ROW COL. STREAM  RCH.  FLOW INTO     FLOW TO   FLOW OUT OF   OVRLND.     DIRECT     STREAM       STREAM     STREAM     STREAM   STREAMBED  STREAMBED
                SEG.NO.  NO.  STRM. RCH.    AQUIFER    STRM. RCH.    RUNOFF     PRECIP       ET          HEAD       DEPTH      WIDTH   CONDCTNC.   GRADIENT

   1    1    1     1     1    4.3499E+01  3.1564E-01   4.3183E+01  0.000E+00  0.000E+00  0.000E+00  1.09440E+03  1.356E+00  1.610E+01  7.246E-02  1.452E+00
   1    2    2     1     2    4.3183E+01  4.8894E-01   4.2694E+01  0.000E+00  0.000E+00  0.000E+00  1.08941E+03  1.354E+00  1.604E+01  1.123E-01  1.451E+00
   1    3    3     1     3    4.2694E+01  4.1710E-01   4.2277E+01  0.000E+00  0.000E+00  0.000E+00  1.08377E+03  1.350E+00  1.598E+01  9.588E-02  1.450E+00
   1    3    4     1     4    4.2277E+01  3.8418E-01   4.1893E+01  0.000E+00  0.000E+00  0.000E+00  1.07876E+03  1.347E+00  1.592E+01  8.837E-02  1.449E+00
   1    4    5     2     1    3.9893E+01  3.5834E-01   3.9534E+01  0.000E+00  0.000E+00  0.000E+00  1.07353E+03  1.594E+00  1.200E+01  7.800E-02  1.531E+00
   1    5    6     2     2    3.9534E+01  2.7519E-01   3.9259E+01  0.000E+00  0.000E+00  0.000E+00  1.06810E+03  1.586E+00  1.200E+01  6.000E-02  1.529E+00
   1    6    6     2     3    3.9259E+01  2.7479E-01   3.8985E+01  0.000E+00  0.000E+00  0.000E+00  1.06337E+03  1.580E+00  1.200E+01  6.000E-02  1.527E+00
   1    7    6     2     4    3.8985E+01  2.7439E-01   3.8710E+01  0.000E+00  0.000E+00  0.000E+00  1.05865E+03  1.573E+00  1.200E+01  6.000E-02  1.524E+00
   1    8    6     2     5    3.8710E+01  2.7399E-01   3.8436E+01  0.000E+00  0.000E+00  0.000E+00  1.05392E+03  1.566E+00  1.200E+01  6.000E-02  1.522E+00
   1    3    5     3     1    2.0000E+00  2.8252E-01   1.7175E+00  0.000E+00  0.000E+00  0.000E+00  1.07555E+03  1.909E+00  9.636E+00  7.227E-02  1.955E+00
   1    3    6     3     2    1.7175E+00  2.4905E-01   1.4684E+00  0.000E+00  0.000E+00  0.000E+00  1.07264E+03  1.727E+00  8.909E+00  6.682E-02  1.864E+00
   1    3    7     3     3    1.4684E+00  1.9718E-01   1.2712E+00  0.000E+00  0.000E+00  0.000E+00  1.06987E+03  1.555E+00  8.218E+00  5.547E-02  1.777E+00
   1    4    8     3     4    1.2712E+00  2.2567E-01   1.0456E+00  0.000E+00  0.000E+00  0.000E+00  1.06682E+03  1.364E+00  7.455E+00  6.709E-02  1.682E+00
   1    5    8     3     5    1.0456E+00  1.5790E-01   8.8768E-01  0.000E+00  0.000E+00  0.000E+00  1.06362E+03  1.164E+00  6.655E+00  4.991E-02  1.582E+00
   1    6    8     3     6    8.8768E-01  5.5980E-02   8.3170E-01  0.000E+00  0.000E+00  0.000E+00  1.06158E+03  1.036E+00  6.145E+00  1.844E-02  1.518E+00
   1    5   10     4     1    1.0000E+01  9.0919E-02   9.9091E+00  0.000E+00  0.000E+00  0.000E+00  1.07836E+03  6.368E-01  1.000E+01  2.500E-02  1.212E+00
   1    5    9     4     2    9.9091E+00  1.8158E-01   9.7275E+00  0.000E+00  0.000E+00  0.000E+00  1.07154E+03  6.315E-01  1.000E+01  5.000E-02  1.211E+00
   1    6    8     4     3    9.7275E+00  1.2689E-01   9.6006E+00  0.000E+00  0.000E+00  0.000E+00  1.06381E+03  6.256E-01  1.000E+01  3.500E-02  1.209E+00
   1    6    8     5     1    1.0432E+01  2.2686E-01   1.0205E+01  0.000E+00  0.000E+00  0.000E+00  1.05868E+03  6.790E-01  1.542E+01  6.166E-02  1.226E+00
   1    7    7     5     2    1.0205E+01  2.7894E-01   9.9265E+00  0.000E+00  0.000E+00  0.000E+00  1.05417E+03  6.732E-01  1.519E+01  7.594E-02  1.224E+00
   1    8    7     5     3    9.9265E+00  1.9221E-01   9.7343E+00  0.000E+00  0.000E+00  0.000E+00  1.04992E+03  6.676E-01  1.497E+01  5.241E-02  1.223E+00
   1    8    6     5     4    9.7343E+00  1.3577E-01   9.5985E+00  0.000E+00  0.000E+00  0.000E+00  1.04691E+03  6.637E-01  1.482E+01  3.706E-02  1.221E+00
   1    9    6     6     1    9.5985E+00  2.2097E-01   9.3776E+00  0.000E+00  0.000E+00  0.000E+00  1.04341E+03  6.828E-01  1.200E+01  6.000E-02  1.228E+00
   1   10    7     6     2    9.3776E+00  2.2039E-01   9.1572E+00  0.000E+00  0.000E+00  0.000E+00  1.03885E+03  6.732E-01  1.200E+01  6.000E-02  1.224E+00
   1   11    7     6     3    9.1572E+00  2.1981E-01   8.9374E+00  0.000E+00  0.000E+00  0.000E+00  1.03430E+03  6.636E-01  1.200E+01  6.000E-02  1.221E+00
   1   12    7     6     4    8.9374E+00  2.1923E-01   8.7181E+00  0.000E+00  0.000E+00  0.000E+00  1.02974E+03  6.539E-01  1.200E+01  6.000E-02  1.218E+00
   1   13    7     6     5    8.7181E+00 -1.1037E-01   8.8285E+00  0.000E+00  0.000E+00  0.000E+00  1.02656E+03  6.514E-01  1.200E+01  2.400E-01 -1.533E-01
   1   14    9     7     1    1.5000E+02  1.3457E+00   1.4865E+02  0.000E+00  0.000E+00  0.000E+00  1.03987E+03  2.288E+00  5.529E+01  5.593E-01  8.020E-01
   1   13    8     7     2    1.4865E+02  1.8507E+00   1.4680E+02  0.000E+00  0.000E+00  0.000E+00  1.03478E+03  2.279E+00  5.526E+01  6.148E-01  1.003E+00
   1   13    7     7     3    1.4680E+02  1.4906E+00   1.4531E+02  0.000E+00  0.000E+00  0.000E+00  1.02969E+03  2.270E+00  5.522E+01  5.584E-01  8.897E-01
   1   13    6     8     1    1.5414E+02  8.4280E-01   1.5330E+02  0.000E+00  0.000E+00  0.000E+00  1.02472E+03  2.843E+00  4.122E+01  4.201E-01  6.688E-01
   1   13    5     8     2    1.5330E+02  1.1243E-01   1.5319E+02  0.000E+00  0.000E+00  0.000E+00  1.01846E+03  2.840E+00  4.117E+01  4.196E-01  8.932E-02
   1   13    4     8     3    1.5319E+02 -2.6392E+00   1.5583E+02  0.000E+00  0.000E+00  0.000E+00  1.01222E+03  2.848E+00  4.130E+01  4.209E+00 -2.090E-01
   1   13    3     8     4    1.5583E+02 -3.7260E+00   1.5955E+02  0.000E+00  0.000E+00  0.000E+00  1.00600E+03  2.870E+00  4.162E+01  4.241E+00 -2.929E-01
   1   13    2     8     5    1.5955E+02 -2.5922E+00   1.6214E+02  0.000E+00  0.000E+00  0.000E+00  9.99767E+02  2.892E+00  4.193E+01  4.273E+00 -2.022E-01
   1   13    1     8     6    1.6214E+02 -1.9791E+00   1.6412E+02  0.000E+00  0.000E+00  0.000E+00  9.94782E+02  2.907E+00  4.215E+01  2.577E+00 -2.560E-01
   1    8    6     9     1    3.8436E+01  0.0000E+00   3.8436E+01  0.000E+00  0.000E+00  0.000E+00  1.08383E+03  5.083E+00  4.000E+00  0.000E+00  2.694E+00
   1    8    5     9     2    3.8436E+01  0.0000E+00   3.8436E+01  0.000E+00  0.000E+00  0.000E+00  1.08333E+03  5.083E+00  4.000E+00  0.000E+00  2.694E+00





UNSATURATED ZONE PACKAGE VOLUMETRIC BUDGET FOR  TIME STEP    30 STRESS PERIOD   43
  ------------------------------------------------------------------------------



     CUMULATIVE VOLUMES      L**3       RATES FOR THIS TIME STEP      L**3/T
     ------------------                 ------------------------

           IN:                                      IN:
           ---                                      ---
        INFILTRATION =    93688068.6552          INFILTRATION =           0.8475

          OUT:                                     OUT:
          ----                                     ----
              UZF ET =    92863053.4378                UZF ET =           0.8475
        UZF RECHARGE =       73224.0000          UZF RECHARGE =       0.0000E+00

            IN - OUT =      751791.2173              IN - OUT =       0.0000E+00

          STORAGE:                                 STORAGE:
          --------                                 --------
      STORAGE CHANGE =      751791.5911        STORAGE CHANGE =      -1.9089E-15

 PERCENT DISCREPANCY IS DIFFERENCE BETWEEN IN-OUT MINUS CHANGE IN STORAGE
 DIVIDED BY THE AVERAGE OF IN AND OUT TIMES 100

 PERCENT DISCREPANCY =           0.00     PERCENT DISCREPANCY =           0.00






1
  VOLUMETRIC BUDGET FOR ENTIRE MODEL AT END OF TIME STEP   30, STRESS PERIOD  43
  ------------------------------------------------------------------------------

     CUMULATIVE VOLUMES      L**3       RATES FOR THIS TIME STEP      L**3/T
     ------------------                 ------------------------

           IN:                                      IN:
           ---                                      ---
             STORAGE     =    31522974.0000               STORAGE     =       6.6508E-02
       CONSTANT HEAD     =           0.0000         CONSTANT HEAD     =           0.0000
     HEAD DEP BOUNDS     =    31636322.0000       HEAD DEP BOUNDS     =           0.2864
      STREAM LEAKAGE     =  1298311424.0000        STREAM LEAKAGE     =          11.9867
        UZF RECHARGE     =       73223.9531          UZF RECHARGE     =           0.0000
               GW ET     =           0.0000                 GW ET     =           0.0000
     SURFACE LEAKAGE     =           0.0000       SURFACE LEAKAGE     =           0.0000

                TOTAL IN =  1361543936.0000                  TOTAL IN =          12.3396

          OUT:                                     OUT:
          ----                                     ----
             STORAGE     =   106312288.0000               STORAGE     =           1.0061
       CONSTANT HEAD     =           0.0000         CONSTANT HEAD     =           0.0000
     HEAD DEP BOUNDS     =    31717756.0000       HEAD DEP BOUNDS     =           0.2869
      STREAM LEAKAGE     =  1223532416.0000        STREAM LEAKAGE     =          11.0469
        UZF RECHARGE     =           0.0000          UZF RECHARGE     =           0.0000
               GW ET     =           0.0000                 GW ET     =           0.0000
     SURFACE LEAKAGE     =           0.0000       SURFACE LEAKAGE     =           0.0000

               TOTAL OUT =  1361562496.0000                 TOTAL OUT =          12.3399

                IN - OUT =      -18560.0000                  IN - OUT =      -2.6512E-04

     PERCENT DISCREPANCY =          -0.00         PERCENT DISCREPANCY =          -0.00






         TIME SUMMARY AT END OF TIME STEP   30 IN STRESS PERIOD   43
                    SECONDS     MINUTES      HOURS       DAYS        YEARS
                    -----------------------------------------------------------
   TIME STEP LENGTH  87667.      1461.1      24.352      1.0147     2.77799E-03
 STRESS PERIOD TIME 2.63000E+06  43833.      730.56      30.440     8.33397E-02
         TOTAL TIME 1.10545E+08 1.84242E+06  30707.      1279.5      3.5030    
1
1
                            STRESS PERIOD NO.   44, LENGTH =   2630000.    
                            -----------------------------------------------

                              NUMBER OF TIME STEPS =    30

                               MULTIPLIER FOR DELT =     1.000

                            INITIAL TIME STEP SIZE =   87666.66    

 REUSING NON-PARAMETER GHB CELLS FROM LAST STRESS PERIOD

      2 GHB CELLS

 REUSING STREAM SEGMENT DATA FROM LAST STRESS PERIOD



            AREAL INFILTRATION RATE
 READING ON UNIT   19 WITH FORMAT: (FREE)              

            1           2           3           4           5           6           7           8           9          10
 ........................................................................................................................
   1   1.0000E-10  2.0000E-10   0.000       0.000       0.000       0.000       0.000       0.000       0.000       0.000    
   2   2.0000E-10  1.0000E-10  2.0000E-10   0.000       0.000      8.0000E-10  8.0000E-10  5.0000E-10   0.000       0.000    
   3    0.000      5.0000E-10  1.0000E-10  1.0000E-10  8.0000E-10  8.0000E-10  5.0000E-10  5.0000E-10   0.000       0.000    
   4   8.0000E-10  5.0000E-10  1.0000E-10  1.0000E-10  1.0000E-10  1.0000E-10  1.0000E-10  1.0000E-10  2.0000E-10   0.000    
   5   8.0000E-10  5.0000E-10  1.0000E-10  1.0000E-10  1.0000E-10  1.0000E-10  1.0000E-10  1.0000E-10  1.0000E-10  1.0000E-10
   6   8.0000E-10  5.0000E-10  5.0000E-10  2.0000E-10  2.0000E-10  1.0000E-10  1.0000E-10  1.0000E-10  1.0000E-10  5.0000E-10
   7   8.0000E-10  5.0000E-10  5.0000E-10  2.0000E-10  2.0000E-10  1.0000E-10  1.0000E-10  2.0000E-10  2.0000E-10   0.000    
   8    0.000      5.0000E-10  5.0000E-10  2.0000E-10  2.0000E-10  1.0000E-10  1.0000E-10  2.0000E-10  5.0000E-10   0.000    
   9    0.000      5.0000E-10  5.0000E-10  2.0000E-10  2.0000E-10  1.0000E-10  1.0000E-10  2.0000E-10  5.0000E-10   0.000    
  10    0.000      5.0000E-10  5.0000E-10  2.0000E-10  2.0000E-10  1.0000E-10  1.0000E-10  2.0000E-10  5.0000E-10  8.0000E-10
  11    0.000      1.0000E-10  1.0000E-10  1.0000E-10  1.0000E-10  1.0000E-10  1.0000E-10  2.0000E-10  5.0000E-10   0.000    
  12   1.0000E-10  1.0000E-10  1.0000E-10  1.0000E-10  1.0000E-10  1.0000E-10  1.0000E-10  1.0000E-10  2.0000E-10   0.000    
  13   1.0000E-10  1.0000E-10  2.0000E-10  2.0000E-10  2.0000E-10  2.0000E-10  2.0000E-10  1.0000E-10  1.0000E-10   0.000    
  14    0.000      2.0000E-10  5.0000E-10  5.0000E-10  5.0000E-10  5.0000E-10  5.0000E-10  2.0000E-10  1.0000E-10   0.000    
  15    0.000       0.000      8.0000E-10  8.0000E-10  8.0000E-10  8.0000E-10   0.000       0.000       0.000       0.000    

                  ET RATE =  4.000000E-07

 USING ET EXTINCTION DEPTH FROM PREVIOUS STRESS PERIOD. CURRENT PERIOD IS:      44

 USING EXTINCTION WATER CONTENT FROM PREVIOUS STRESS PERIOD. CURRENT PERIOD IS:      44

 USING AIR ENTRY PRESSURE FROM PREVIOUS STRESS PERIOD. CURRENT PERIOD IS:      44

 USING ROOT PRESSURE HEAD FROM PREVIOUS STRESS PERIOD. CURRENT PERIOD IS:      44

 USING ROOT ACTIVITY FROM PREVIOUS STRESS PERIOD. CURRENT PERIOD IS:      44
 
 SOLVING FOR HEAD 
                                                   Max.-Head-Change                         Max.-Flux-Residual
  Residual-Control   Outer-Iter.   Inner-Iter.     Column Row Layer    Maximum-Head-Change  Column Row Layer    Maximum-Flux-Residual          L2-NORM 
          0                 1           2             1    1     1       0.2344631279E-02       1    1    1         0.1216495630E+00      0.2173710144E+00
          0                 2           2             1    1     1      -0.2280687677E-03       1    1    1        -0.1216496166E-01      0.2173710570E-01
          0                 3           1             1    1     1       0.1553063665E-04       1    1    1         0.8515476271E-03      0.1521599237E-02

    ------------------------------------------------
       NWT REQUIRED            3 OUTER ITERATIONS 
       AND A TOTAL OF          5 INNER ITERATIONS.
    ------------------------------------------------

 NO OUTPUT CONTROL FOR STRESS PERIOD   44   TIME STEP    1
 
 SOLVING FOR HEAD 
                                                   Max.-Head-Change                         Max.-Flux-Residual
  Residual-Control   Outer-Iter.   Inner-Iter.     Column Row Layer    Maximum-Head-Change  Column Row Layer    Maximum-Flux-Residual          L2-NORM 
          0                 1           2             1    1     1       0.2343451112E-02       1    1    1         0.1215882212E+00      0.2172822620E+00
          0                 2           2             1    1     1      -0.2279539692E-03       1    1    1        -0.1215882745E-01      0.2172822940E-01
          0                 3           1             1    1     1       0.1552281957E-04       1    1    1         0.8511182383E-03      0.1520976707E-02

    ------------------------------------------------
       NWT REQUIRED            3 OUTER ITERATIONS 
       AND A TOTAL OF          5 INNER ITERATIONS.
    ------------------------------------------------

 NO OUTPUT CONTROL FOR STRESS PERIOD   44   TIME STEP    2
 
 SOLVING FOR HEAD 
                                                   Max.-Head-Change                         Max.-Flux-Residual
  Residual-Control   Outer-Iter.   Inner-Iter.     Column Row Layer    Maximum-Head-Change  Column Row Layer    Maximum-Flux-Residual          L2-NORM 
          0                 1           2             1    1     1       0.2342297339E-02       1    1    1         0.1215282531E+00      0.2171912679E+00
          0                 2           2             1    1     1      -0.2278417386E-03       1    1    1        -0.1215283063E-01      0.2171913018E-01
          0                 3           1             1    1     1       0.1551517692E-04       1    1    1         0.8506984585E-03      0.1520341186E-02

    ------------------------------------------------
       NWT REQUIRED            3 OUTER ITERATIONS 
       AND A TOTAL OF          5 INNER ITERATIONS.
    ------------------------------------------------

 NO OUTPUT CONTROL FOR STRESS PERIOD   44   TIME STEP    3
 
 SOLVING FOR HEAD 
                                                   Max.-Head-Change                         Max.-Flux-Residual
  Residual-Control   Outer-Iter.   Inner-Iter.     Column Row Layer    Maximum-Head-Change  Column Row Layer    Maximum-Flux-Residual          L2-NORM 
          0                 1           2             1    1     1       0.2341122908E-02       1    1    1         0.1214672107E+00      0.2171008451E+00
          0                 2           2             1    1     1      -0.2277274982E-03       1    1    1        -0.1214672638E-01      0.2171008782E-01
          0                 3           1             1    1     1       0.1550739747E-04       1    1    1         0.8502711583E-03      0.1519706817E-02

    ------------------------------------------------
       NWT REQUIRED            3 OUTER ITERATIONS 
       AND A TOTAL OF          5 INNER ITERATIONS.
    ------------------------------------------------

 NO OUTPUT CONTROL FOR STRESS PERIOD   44   TIME STEP    4
 
 SOLVING FOR HEAD 
                                                   Max.-Head-Change                         Max.-Flux-Residual
  Residual-Control   Outer-Iter.   Inner-Iter.     Column Row Layer    Maximum-Head-Change  Column Row Layer    Maximum-Flux-Residual          L2-NORM 
          0                 1           2             1    1     1       0.2339974872E-02       1    1    1         0.1214075401E+00      0.2170084677E+00
          0                 2           2             1    1     1      -0.2276158247E-03       1    1    1        -0.1214075928E-01      0.2170085037E-01
          0                 3           1             1    1     1       0.1549979292E-04       1    1    1         0.8498534558E-03      0.1519060125E-02

    ------------------------------------------------
       NWT REQUIRED            3 OUTER ITERATIONS 
       AND A TOTAL OF          5 INNER ITERATIONS.
    ------------------------------------------------

 NO OUTPUT CONTROL FOR STRESS PERIOD   44   TIME STEP    5
 
 SOLVING FOR HEAD 
                                                   Max.-Head-Change                         Max.-Flux-Residual
  Residual-Control   Outer-Iter.   Inner-Iter.     Column Row Layer    Maximum-Head-Change  Column Row Layer    Maximum-Flux-Residual          L2-NORM 
          0                 1           2             1    1     1       0.2182702617E-02       1    1    1         0.1132374886E+00      0.2037182906E+00
          0                 2           2             1    1     1      -0.2123175030E-03       1    1    1        -0.1132375280E-01      0.2037183247E-01
          0                 3           1             1    1     1       0.1445803433E-04       1    1    1         0.7926629975E-03      0.1426029283E-02

    ------------------------------------------------
       NWT REQUIRED            3 OUTER ITERATIONS 
       AND A TOTAL OF          5 INNER ITERATIONS.
    ------------------------------------------------

 NO OUTPUT CONTROL FOR STRESS PERIOD   44   TIME STEP    6
 
 SOLVING FOR HEAD 
                                                   Max.-Head-Change                         Max.-Flux-Residual
  Residual-Control   Outer-Iter.   Inner-Iter.     Column Row Layer    Maximum-Head-Change  Column Row Layer    Maximum-Flux-Residual          L2-NORM 
          0                 1           2             1    1     1       0.2145767393E-02       1    1    1         0.1113187700E+00      0.2007849277E+00
          0                 2           2             1    1     1      -0.2087247081E-03       1    1    1        -0.1113188062E-01      0.2007849639E-01
          0                 3           1             1    1     1       0.1421337831E-04       1    1    1         0.7792319426E-03      0.1405495706E-02

    ------------------------------------------------
       NWT REQUIRED            3 OUTER ITERATIONS 
       AND A TOTAL OF          5 INNER ITERATIONS.
    ------------------------------------------------

 NO OUTPUT CONTROL FOR STRESS PERIOD   44   TIME STEP    7
 
 SOLVING FOR HEAD 
                                                   Max.-Head-Change                         Max.-Flux-Residual
  Residual-Control   Outer-Iter.   Inner-Iter.     Column Row Layer    Maximum-Head-Change  Column Row Layer    Maximum-Flux-Residual          L2-NORM 
          0                 1           2             1    1     1       0.2144945000E-02       1    1    1         0.1112760610E+00      0.2006606796E+00
          0                 2           2             1    1     1      -0.2086447117E-03       1    1    1        -0.1112760971E-01      0.2006607154E-01
          0                 3           1             1    1     1       0.1420793080E-04       1    1    1         0.7789329856E-03      0.1404625807E-02

    ------------------------------------------------
       NWT REQUIRED            3 OUTER ITERATIONS 
       AND A TOTAL OF          5 INNER ITERATIONS.
    ------------------------------------------------

 NO OUTPUT CONTROL FOR STRESS PERIOD   44   TIME STEP    8
 
 SOLVING FOR HEAD 
                                                   Max.-Head-Change                         Max.-Flux-Residual
  Residual-Control   Outer-Iter.   Inner-Iter.     Column Row Layer    Maximum-Head-Change  Column Row Layer    Maximum-Flux-Residual          L2-NORM 
          0                 1           2             1    1     1       0.2144123994E-02       1    1    1         0.1112334216E+00      0.2005390188E+00
          0                 2           2             1    1     1      -0.2085648499E-03       1    1    1        -0.1112334576E-01      0.2005390518E-01
          0                 3           1             1    1     1       0.1420249276E-04       1    1    1         0.7786345056E-03      0.1403774171E-02

    ------------------------------------------------
       NWT REQUIRED            3 OUTER ITERATIONS 
       AND A TOTAL OF          5 INNER ITERATIONS.
    ------------------------------------------------

 NO OUTPUT CONTROL FOR STRESS PERIOD   44   TIME STEP    9
 
 SOLVING FOR HEAD 
                                                   Max.-Head-Change                         Max.-Flux-Residual
  Residual-Control   Outer-Iter.   Inner-Iter.     Column Row Layer    Maximum-Head-Change  Column Row Layer    Maximum-Flux-Residual          L2-NORM 
          0                 1           2             1    1     1       0.2143304329E-02       1    1    1         0.1111908541E+00      0.2004256247E+00
          0                 2           2             1    1     1      -0.2084851187E-03       1    1    1        -0.1111908901E-01      0.2004256560E-01
          0                 3           1             1    1     1       0.1419706323E-04       1    1    1         0.7783365277E-03      0.1402982902E-02

    ------------------------------------------------
       NWT REQUIRED            3 OUTER ITERATIONS 
       AND A TOTAL OF          5 INNER ITERATIONS.
    ------------------------------------------------

 NO OUTPUT CONTROL FOR STRESS PERIOD   44   TIME STEP   10
 
 SOLVING FOR HEAD 
                                                   Max.-Head-Change                         Max.-Flux-Residual
  Residual-Control   Outer-Iter.   Inner-Iter.     Column Row Layer    Maximum-Head-Change  Column Row Layer    Maximum-Flux-Residual          L2-NORM 
          0                 1           2             1    1     1       0.2142486031E-02       1    1    1         0.1111483561E+00      0.2003079585E+00
          0                 2           2             1    1     1      -0.2084055208E-03       1    1    1        -0.1111483922E-01      0.2003079903E-01
          0                 3           1             1    1     1       0.1419164294E-04       1    1    1         0.7780390568E-03      0.1402157068E-02

    ------------------------------------------------
       NWT REQUIRED            3 OUTER ITERATIONS 
       AND A TOTAL OF          5 INNER ITERATIONS.
    ------------------------------------------------

 NO OUTPUT CONTROL FOR STRESS PERIOD   44   TIME STEP   11
 
 SOLVING FOR HEAD 
                                                   Max.-Head-Change                         Max.-Flux-Residual
  Residual-Control   Outer-Iter.   Inner-Iter.     Column Row Layer    Maximum-Head-Change  Column Row Layer    Maximum-Flux-Residual          L2-NORM 
          0                 1           2             1    1     1       0.2141669090E-02       1    1    1         0.1111059291E+00      0.2002020243E+00
          0                 2           2             1    1     1      -0.2083260548E-03       1    1    1        -0.1111059651E-01      0.2002020571E-01
          0                 3           1             1    1     1       0.1418623188E-04       1    1    1         0.7777420701E-03      0.1401418261E-02

    ------------------------------------------------
       NWT REQUIRED            3 OUTER ITERATIONS 
       AND A TOTAL OF          5 INNER ITERATIONS.
    ------------------------------------------------

 NO OUTPUT CONTROL FOR STRESS PERIOD   44   TIME STEP   12
 
 SOLVING FOR HEAD 
                                                   Max.-Head-Change                         Max.-Flux-Residual
  Residual-Control   Outer-Iter.   Inner-Iter.     Column Row Layer    Maximum-Head-Change  Column Row Layer    Maximum-Flux-Residual          L2-NORM 
          0                 1           2             1    1     1       0.2140853513E-02       1    1    1         0.1110635724E+00      0.2000925871E+00
          0                 2           2             1    1     1      -0.2082467212E-03       1    1    1        -0.1110636083E-01      0.2000926175E-01
          0                 3           1             1    1     1       0.1418082910E-04       1    1    1         0.7774455566E-03      0.1400648655E-02

    ------------------------------------------------
       NWT REQUIRED            3 OUTER ITERATIONS 
       AND A TOTAL OF          5 INNER ITERATIONS.
    ------------------------------------------------

 NO OUTPUT CONTROL FOR STRESS PERIOD   44   TIME STEP   13
 
 SOLVING FOR HEAD 
                                                   Max.-Head-Change                         Max.-Flux-Residual
  Residual-Control   Outer-Iter.   Inner-Iter.     Column Row Layer    Maximum-Head-Change  Column Row Layer    Maximum-Flux-Residual          L2-NORM 
          0                 1           2             1    1     1       0.2140039290E-02       1    1    1         0.1110212864E+00      0.1999907510E+00
          0                 2           2             1    1     1      -0.2081675191E-03       1    1    1        -0.1110213222E-01      0.1999907806E-01
          0                 3           1             1    1     1       0.1417543532E-04       1    1    1         0.7771495459E-03      0.1399936802E-02

    ------------------------------------------------
       NWT REQUIRED            3 OUTER ITERATIONS 
       AND A TOTAL OF          5 INNER ITERATIONS.
    ------------------------------------------------

 NO OUTPUT CONTROL FOR STRESS PERIOD   44   TIME STEP   14
 
 SOLVING FOR HEAD 
                                                   Max.-Head-Change                         Max.-Flux-Residual
  Residual-Control   Outer-Iter.   Inner-Iter.     Column Row Layer    Maximum-Head-Change  Column Row Layer    Maximum-Flux-Residual          L2-NORM 
          0                 1           2             1    1     1       0.2139226402E-02       1    1    1         0.1109790706E+00      0.1998887681E+00
          0                 2           2             1    1     1      -0.2080884473E-03       1    1    1        -0.1109791063E-01      0.1998888180E-01
          0                 3           1             1    1     1       0.1417005100E-04       1    1    1         0.7768540399E-03      0.1399242681E-02

    ------------------------------------------------
       NWT REQUIRED            3 OUTER ITERATIONS 
       AND A TOTAL OF          5 INNER ITERATIONS.
    ------------------------------------------------

 NO OUTPUT CONTROL FOR STRESS PERIOD   44   TIME STEP   15
 
 SOLVING FOR HEAD 
                                                   Max.-Head-Change                         Max.-Flux-Residual
  Residual-Control   Outer-Iter.   Inner-Iter.     Column Row Layer    Maximum-Head-Change  Column Row Layer    Maximum-Flux-Residual          L2-NORM 
          0                 1           2             1    1     1       0.2138414875E-02       1    1    1         0.1109369240E+00      0.1997902410E+00
          0                 2           2             1    1     1      -0.2080095080E-03       1    1    1        -0.1109369599E-01      0.1997903316E-01
          0                 3           1             1    1     1       0.1416467568E-04       1    1    1         0.7765590161E-03      0.1398570950E-02

    ------------------------------------------------
       NWT REQUIRED            3 OUTER ITERATIONS 
       AND A TOTAL OF          5 INNER ITERATIONS.
    ------------------------------------------------

 NO OUTPUT CONTROL FOR STRESS PERIOD   44   TIME STEP   16
 
 SOLVING FOR HEAD 
                                                   Max.-Head-Change                         Max.-Flux-Residual
  Residual-Control   Outer-Iter.   Inner-Iter.     Column Row Layer    Maximum-Head-Change  Column Row Layer    Maximum-Flux-Residual          L2-NORM 
          0                 1           2             1    1     1       0.2137604697E-02       1    1    1         0.1108948480E+00      0.1996922588E+00
          0                 2           2             1    1     1      -0.2079306996E-03       1    1    1        -0.1108948838E-01      0.1996922914E-01
          0                 3           1             1    1     1       0.1415930911E-04       1    1    1         0.7762644852E-03      0.1397846940E-02

    ------------------------------------------------
       NWT REQUIRED            3 OUTER ITERATIONS 
       AND A TOTAL OF          5 INNER ITERATIONS.
    ------------------------------------------------

 NO OUTPUT CONTROL FOR STRESS PERIOD   44   TIME STEP   17
 
 SOLVING FOR HEAD 
                                                   Max.-Head-Change                         Max.-Flux-Residual
  Residual-Control   Outer-Iter.   Inner-Iter.     Column Row Layer    Maximum-Head-Change  Column Row Layer    Maximum-Flux-Residual          L2-NORM 
          0                 1           2             1    1     1       0.2136795876E-02       1    1    1         0.1108528420E+00      0.1995966602E+00
          0                 2           2             1    1     1      -0.2078520233E-03       1    1    1        -0.1108528776E-01      0.1995966888E-01
          0                 3           1             1    1     1       0.1415395178E-04       1    1    1         0.7759704512E-03      0.1397177364E-02

    ------------------------------------------------
       NWT REQUIRED            3 OUTER ITERATIONS 
       AND A TOTAL OF          5 INNER ITERATIONS.
    ------------------------------------------------

 NO OUTPUT CONTROL FOR STRESS PERIOD   44   TIME STEP   18
 
 SOLVING FOR HEAD 
                                                   Max.-Head-Change                         Max.-Flux-Residual
  Residual-Control   Outer-Iter.   Inner-Iter.     Column Row Layer    Maximum-Head-Change  Column Row Layer    Maximum-Flux-Residual          L2-NORM 
          0                 1           2             1    1     1       0.2135988403E-02       1    1    1         0.1108109063E+00      0.1995025285E+00
          0                 2           2             1    1     1      -0.2077734782E-03       1    1    1        -0.1108109418E-01      0.1995025596E-01
          0                 3           1             1    1     1       0.1414860343E-04       1    1    1         0.7756769134E-03      0.1396518808E-02

    ------------------------------------------------
       NWT REQUIRED            3 OUTER ITERATIONS 
       AND A TOTAL OF          5 INNER ITERATIONS.
    ------------------------------------------------

 NO OUTPUT CONTROL FOR STRESS PERIOD   44   TIME STEP   19
 
 SOLVING FOR HEAD 
                                                   Max.-Head-Change                         Max.-Flux-Residual
  Residual-Control   Outer-Iter.   Inner-Iter.     Column Row Layer    Maximum-Head-Change  Column Row Layer    Maximum-Flux-Residual          L2-NORM 
          0                 1           2             1    1     1       0.2135182283E-02       1    1    1         0.1107690405E+00      0.1994122175E+00
          0                 2           2             1    1     1      -0.2076950646E-03       1    1    1        -0.1107690761E-01      0.1994122477E-01
          0                 3           1             1    1     1       0.1414326338E-04       1    1    1         0.7753838292E-03      0.1395887134E-02

    ------------------------------------------------
       NWT REQUIRED            3 OUTER ITERATIONS 
       AND A TOTAL OF          5 INNER ITERATIONS.
    ------------------------------------------------

 NO OUTPUT CONTROL FOR STRESS PERIOD   44   TIME STEP   20
 
 SOLVING FOR HEAD 
                                                   Max.-Head-Change                         Max.-Flux-Residual
  Residual-Control   Outer-Iter.   Inner-Iter.     Column Row Layer    Maximum-Head-Change  Column Row Layer    Maximum-Flux-Residual          L2-NORM 
          0                 1           2             1    1     1       0.2134377507E-02       1    1    1         0.1107272449E+00      0.1993252902E+00
          0                 2           2             1    1     1      -0.2076167815E-03       1    1    1        -0.1107272802E-01      0.1993253198E-01
          0                 3           1             1    1     1       0.1413793255E-04       1    1    1         0.7750912604E-03      0.1395280440E-02

    ------------------------------------------------
       NWT REQUIRED            3 OUTER ITERATIONS 
       AND A TOTAL OF          5 INNER ITERATIONS.
    ------------------------------------------------

 NO OUTPUT CONTROL FOR STRESS PERIOD   44   TIME STEP   21
 
 SOLVING FOR HEAD 
                                                   Max.-Head-Change                         Max.-Flux-Residual
  Residual-Control   Outer-Iter.   Inner-Iter.     Column Row Layer    Maximum-Head-Change  Column Row Layer    Maximum-Flux-Residual          L2-NORM 
          0                 1           2             1    1     1       0.2133574081E-02       1    1    1         0.1106855189E+00      0.1992374888E+00
          0                 2           2             1    1     1      -0.2075386300E-03       1    1    1        -0.1106855542E-01      0.1992375210E-01
          0                 3           1             1    1     1       0.1413261095E-04       1    1    1         0.7747991836E-03      0.1394663492E-02

    ------------------------------------------------
       NWT REQUIRED            3 OUTER ITERATIONS 
       AND A TOTAL OF          5 INNER ITERATIONS.
    ------------------------------------------------

 NO OUTPUT CONTROL FOR STRESS PERIOD   44   TIME STEP   22
 
 SOLVING FOR HEAD 
                                                   Max.-Head-Change                         Max.-Flux-Residual
  Residual-Control   Outer-Iter.   Inner-Iter.     Column Row Layer    Maximum-Head-Change  Column Row Layer    Maximum-Flux-Residual          L2-NORM 
          0                 1           2             1    1     1       0.2132748438E-02       1    1    1         0.1106426401E+00      0.1991517418E+00
          0                 2           2             1    1     1      -0.2074583178E-03       1    1    1        -0.1106426756E-01      0.1991517660E-01
          0                 3           1             1    1     1       0.1412714214E-04       1    1    1         0.7744990402E-03      0.1394064043E-02

    ------------------------------------------------
       NWT REQUIRED            3 OUTER ITERATIONS 
       AND A TOTAL OF          5 INNER ITERATIONS.
    ------------------------------------------------

 NO OUTPUT CONTROL FOR STRESS PERIOD   44   TIME STEP   23
 
 SOLVING FOR HEAD 
                                                   Max.-Head-Change                         Max.-Flux-Residual
  Residual-Control   Outer-Iter.   Inner-Iter.     Column Row Layer    Maximum-Head-Change  Column Row Layer    Maximum-Flux-Residual          L2-NORM 
          0                 1           2             1    1     1       0.2131947715E-02       1    1    1         0.1106010550E+00      0.1990657680E+00
          0                 2           2             1    1     1      -0.2073804286E-03       1    1    1        -0.1106010902E-01      0.1990657928E-01
          0                 3           1             1    1     1       0.1412183758E-04       1    1    1         0.7742079193E-03      0.1393461108E-02

    ------------------------------------------------
       NWT REQUIRED            3 OUTER ITERATIONS 
       AND A TOTAL OF          5 INNER ITERATIONS.
    ------------------------------------------------

 NO OUTPUT CONTROL FOR STRESS PERIOD   44   TIME STEP   24
 
 SOLVING FOR HEAD 
                                                   Max.-Head-Change                         Max.-Flux-Residual
  Residual-Control   Outer-Iter.   Inner-Iter.     Column Row Layer    Maximum-Head-Change  Column Row Layer    Maximum-Flux-Residual          L2-NORM 
          0                 1           2             1    1     1       0.2131148337E-02       1    1    1         0.1105595392E+00      0.1989783670E+00
          0                 2           2             1    1     1      -0.2073026710E-03       1    1    1        -0.1105595742E-01      0.1989783991E-01
          0                 3           1             1    1     1       0.1411654320E-04       1    1    1         0.7739173308E-03      0.1392849457E-02

    ------------------------------------------------
       NWT REQUIRED            3 OUTER ITERATIONS 
       AND A TOTAL OF          5 INNER ITERATIONS.
    ------------------------------------------------

 NO OUTPUT CONTROL FOR STRESS PERIOD   44   TIME STEP   25
 
 SOLVING FOR HEAD 
                                                   Max.-Head-Change                         Max.-Flux-Residual
  Residual-Control   Outer-Iter.   Inner-Iter.     Column Row Layer    Maximum-Head-Change  Column Row Layer    Maximum-Flux-Residual          L2-NORM 
          0                 1           2             1    1     1       0.2130350294E-02       1    1    1         0.1105180931E+00      0.1988974355E+00
          0                 2           2             1    1     1      -0.2072250432E-03       1    1    1        -0.1105181283E-01      0.1988974698E-01
          0                 3           1             1    1     1       0.1411125663E-04       1    1    1         0.7736271941E-03      0.1392283435E-02

    ------------------------------------------------
       NWT REQUIRED            3 OUTER ITERATIONS 
       AND A TOTAL OF          5 INNER ITERATIONS.
    ------------------------------------------------

 NO OUTPUT CONTROL FOR STRESS PERIOD   44   TIME STEP   26
 
 SOLVING FOR HEAD 
                                                   Max.-Head-Change                         Max.-Flux-Residual
  Residual-Control   Outer-Iter.   Inner-Iter.     Column Row Layer    Maximum-Head-Change  Column Row Layer    Maximum-Flux-Residual          L2-NORM 
          0                 1           2             1    1     1       0.2129553592E-02       1    1    1         0.1104767163E+00      0.1988163742E+00
          0                 2           2             1    1     1      -0.2071475457E-03       1    1    1        -0.1104767513E-01      0.1988164117E-01
          0                 3           1             1    1     1       0.1410597953E-04       1    1    1         0.7733375660E-03      0.1391715385E-02

    ------------------------------------------------
       NWT REQUIRED            3 OUTER ITERATIONS 
       AND A TOTAL OF          5 INNER ITERATIONS.
    ------------------------------------------------

 NO OUTPUT CONTROL FOR STRESS PERIOD   44   TIME STEP   27
 
 SOLVING FOR HEAD 
                                                   Max.-Head-Change                         Max.-Flux-Residual
  Residual-Control   Outer-Iter.   Inner-Iter.     Column Row Layer    Maximum-Head-Change  Column Row Layer    Maximum-Flux-Residual          L2-NORM 
          0                 1           2             1    1     1       0.2127998625E-02       1    1    1         0.1103959492E+00      0.1986727075E+00
          0                 2           2             1    1     1      -0.2069962892E-03       1    1    1        -0.1103959840E-01      0.1986727394E-01
          0                 3           1             1    1     1       0.1409567950E-04       1    1    1         0.7727721859E-03      0.1390711015E-02

    ------------------------------------------------
       NWT REQUIRED            3 OUTER ITERATIONS 
       AND A TOTAL OF          5 INNER ITERATIONS.
    ------------------------------------------------

 NO OUTPUT CONTROL FOR STRESS PERIOD   44   TIME STEP   28
 
 SOLVING FOR HEAD 
                                                   Max.-Head-Change                         Max.-Flux-Residual
  Residual-Control   Outer-Iter.   Inner-Iter.     Column Row Layer    Maximum-Head-Change  Column Row Layer    Maximum-Flux-Residual          L2-NORM 
          0                 1           2             2    1     1       0.1798940262E-02       2    1    1         0.9344573602E-01      0.1656929540E+00
          0                 2           2             2    1     1      -0.1749879790E-03       2    1    1        -0.9344583287E-02      0.1656930500E-01
          0                 3           1             2    1     1       0.1191603086E-04       2    1    1         0.6541210405E-03      0.1159851702E-02

    ------------------------------------------------
       NWT REQUIRED            3 OUTER ITERATIONS 
       AND A TOTAL OF          5 INNER ITERATIONS.
    ------------------------------------------------

 NO OUTPUT CONTROL FOR STRESS PERIOD   44   TIME STEP   29
 
 SOLVING FOR HEAD 
                                                   Max.-Head-Change                         Max.-Flux-Residual
  Residual-Control   Outer-Iter.   Inner-Iter.     Column Row Layer    Maximum-Head-Change  Column Row Layer    Maximum-Flux-Residual          L2-NORM 
          0                 1           2             2    1     1       0.1795934139E-02       2    1    1         0.9328872214E-01      0.1640845124E+00
          0                 2           2             2    1     1      -0.1746955638E-03       2    1    1        -0.9328881821E-02      0.1640846260E-01
          0                 3           1             2    1     1       0.1189611835E-04       2    1    1         0.6530219235E-03      0.1148594188E-02

    ------------------------------------------------
       NWT REQUIRED            3 OUTER ITERATIONS 
       AND A TOTAL OF          5 INNER ITERATIONS.
    ------------------------------------------------

 NO OUTPUT CONTROL FOR STRESS PERIOD   44   TIME STEP   30



 STREAM LISTING     PERIOD     44   STEP       30

 LAYER ROW COL. STREAM  RCH.  FLOW INTO     FLOW TO   FLOW OUT OF   OVRLND.     DIRECT     STREAM       STREAM     STREAM     STREAM   STREAMBED  STREAMBED
                SEG.NO.  NO.  STRM. RCH.    AQUIFER    STRM. RCH.    RUNOFF     PRECIP       ET          HEAD       DEPTH      WIDTH   CONDCTNC.   GRADIENT

   1    1    1     1     1    2.7749E+01  2.5751E-01   2.7492E+01  0.000E+00  0.000E+00  0.000E+00  1.09427E+03  1.218E+00  1.357E+01  6.105E-02  1.406E+00
   1    2    2     1     2    2.7492E+01  3.9832E-01   2.7093E+01  0.000E+00  0.000E+00  0.000E+00  1.08927E+03  1.213E+00  1.351E+01  9.454E-02  1.404E+00
   1    3    3     1     3    2.7093E+01  3.3923E-01   2.6754E+01  0.000E+00  0.000E+00  0.000E+00  1.08363E+03  1.208E+00  1.344E+01  8.062E-02  1.403E+00
   1    3    4     1     4    2.6754E+01  3.1200E-01   2.6442E+01  0.000E+00  0.000E+00  0.000E+00  1.07861E+03  1.203E+00  1.337E+01  7.422E-02  1.401E+00
   1    4    5     2     1    2.4442E+01  3.2655E-01   2.4116E+01  0.000E+00  0.000E+00  0.000E+00  1.07312E+03  1.187E+00  1.200E+01  7.800E-02  1.396E+00
   1    5    6     2     2    2.4116E+01  2.5068E-01   2.3865E+01  0.000E+00  0.000E+00  0.000E+00  1.06769E+03  1.178E+00  1.200E+01  6.000E-02  1.393E+00
   1    6    6     2     3    2.3865E+01  2.5024E-01   2.3615E+01  0.000E+00  0.000E+00  0.000E+00  1.06296E+03  1.171E+00  1.200E+01  6.000E-02  1.390E+00
   1    7    6     2     4    2.3615E+01  2.4979E-01   2.3365E+01  0.000E+00  0.000E+00  0.000E+00  1.05824E+03  1.163E+00  1.200E+01  6.000E-02  1.388E+00
   1    8    6     2     5    2.3365E+01  2.4935E-01   2.3115E+01  0.000E+00  0.000E+00  0.000E+00  1.05351E+03  1.156E+00  1.200E+01  6.000E-02  1.385E+00
   1    3    5     3     1    2.0000E+00  2.8252E-01   1.7175E+00  0.000E+00  0.000E+00  0.000E+00  1.07555E+03  1.909E+00  9.636E+00  7.227E-02  1.955E+00
   1    3    6     3     2    1.7175E+00  2.4905E-01   1.4684E+00  0.000E+00  0.000E+00  0.000E+00  1.07264E+03  1.727E+00  8.909E+00  6.682E-02  1.864E+00
   1    3    7     3     3    1.4684E+00  1.9718E-01   1.2712E+00  0.000E+00  0.000E+00  0.000E+00  1.06987E+03  1.555E+00  8.218E+00  5.547E-02  1.777E+00
   1    4    8     3     4    1.2712E+00  2.2567E-01   1.0456E+00  0.000E+00  0.000E+00  0.000E+00  1.06682E+03  1.364E+00  7.455E+00  6.709E-02  1.682E+00
   1    5    8     3     5    1.0456E+00  1.5790E-01   8.8768E-01  0.000E+00  0.000E+00  0.000E+00  1.06362E+03  1.164E+00  6.655E+00  4.991E-02  1.582E+00
   1    6    8     3     6    8.8768E-01  5.5980E-02   8.3170E-01  0.000E+00  0.000E+00  0.000E+00  1.06158E+03  1.036E+00  6.145E+00  1.844E-02  1.518E+00
   1    5   10     4     1    1.0000E+01  9.0919E-02   9.9091E+00  0.000E+00  0.000E+00  0.000E+00  1.07836E+03  6.368E-01  1.000E+01  2.500E-02  1.212E+00
   1    5    9     4     2    9.9091E+00  1.8158E-01   9.7275E+00  0.000E+00  0.000E+00  0.000E+00  1.07154E+03  6.315E-01  1.000E+01  5.000E-02  1.211E+00
   1    6    8     4     3    9.7275E+00  1.2689E-01   9.6006E+00  0.000E+00  0.000E+00  0.000E+00  1.06381E+03  6.256E-01  1.000E+01  3.500E-02  1.209E+00
   1    6    8     5     1    1.0432E+01  2.2686E-01   1.0205E+01  0.000E+00  0.000E+00  0.000E+00  1.05868E+03  6.790E-01  1.542E+01  6.166E-02  1.226E+00
   1    7    7     5     2    1.0205E+01  2.7894E-01   9.9265E+00  0.000E+00  0.000E+00  0.000E+00  1.05417E+03  6.732E-01  1.519E+01  7.594E-02  1.224E+00
   1    8    7     5     3    9.9265E+00  1.9221E-01   9.7343E+00  0.000E+00  0.000E+00  0.000E+00  1.04992E+03  6.676E-01  1.497E+01  5.241E-02  1.223E+00
   1    8    6     5     4    9.7343E+00  1.3577E-01   9.5985E+00  0.000E+00  0.000E+00  0.000E+00  1.04691E+03  6.637E-01  1.482E+01  3.706E-02  1.221E+00
   1    9    6     6     1    9.5985E+00  2.2097E-01   9.3776E+00  0.000E+00  0.000E+00  0.000E+00  1.04341E+03  6.828E-01  1.200E+01  6.000E-02  1.228E+00
   1   10    7     6     2    9.3776E+00  2.2039E-01   9.1572E+00  0.000E+00  0.000E+00  0.000E+00  1.03885E+03  6.732E-01  1.200E+01  6.000E-02  1.224E+00
   1   11    7     6     3    9.1572E+00  2.1981E-01   8.9374E+00  0.000E+00  0.000E+00  0.000E+00  1.03430E+03  6.636E-01  1.200E+01  6.000E-02  1.221E+00
   1   12    7     6     4    8.9374E+00  2.1923E-01   8.7181E+00  0.000E+00  0.000E+00  0.000E+00  1.02974E+03  6.539E-01  1.200E+01  6.000E-02  1.218E+00
   1   13    7     6     5    8.7181E+00 -1.1039E-01   8.8285E+00  0.000E+00  0.000E+00  0.000E+00  1.02656E+03  6.514E-01  1.200E+01  2.400E-01 -1.533E-01
   1   14    9     7     1    1.5000E+02  1.3458E+00   1.4865E+02  0.000E+00  0.000E+00  0.000E+00  1.03987E+03  2.288E+00  5.529E+01  5.593E-01  8.021E-01
   1   13    8     7     2    1.4865E+02  1.8507E+00   1.4680E+02  0.000E+00  0.000E+00  0.000E+00  1.03478E+03  2.279E+00  5.526E+01  6.148E-01  1.003E+00
   1   13    7     7     3    1.4680E+02  1.4906E+00   1.4531E+02  0.000E+00  0.000E+00  0.000E+00  1.02969E+03  2.270E+00  5.522E+01  5.584E-01  8.897E-01
   1   13    6     8     1    1.5414E+02  8.4276E-01   1.5330E+02  0.000E+00  0.000E+00  0.000E+00  1.02472E+03  2.843E+00  4.122E+01  4.201E-01  6.688E-01
   1   13    5     8     2    1.5330E+02  1.1239E-01   1.5319E+02  0.000E+00  0.000E+00  0.000E+00  1.01846E+03  2.840E+00  4.117E+01  4.196E-01  8.929E-02
   1   13    4     8     3    1.5319E+02 -2.6394E+00   1.5583E+02  0.000E+00  0.000E+00  0.000E+00  1.01222E+03  2.848E+00  4.130E+01  4.209E+00 -2.090E-01
   1   13    3     8     4    1.5583E+02 -3.7259E+00   1.5955E+02  0.000E+00  0.000E+00  0.000E+00  1.00600E+03  2.870E+00  4.162E+01  4.241E+00 -2.929E-01
   1   13    2     8     5    1.5955E+02 -2.5921E+00   1.6214E+02  0.000E+00  0.000E+00  0.000E+00  9.99767E+02  2.892E+00  4.193E+01  4.273E+00 -2.022E-01
   1   13    1     8     6    1.6214E+02 -1.9791E+00   1.6412E+02  0.000E+00  0.000E+00  0.000E+00  9.94782E+02  2.907E+00  4.215E+01  2.577E+00 -2.560E-01
   1    8    6     9     1    2.3115E+01  0.0000E+00   2.3115E+01  0.000E+00  0.000E+00  0.000E+00  1.08250E+03  3.746E+00  4.000E+00  0.000E+00  2.249E+00
   1    8    5     9     2    2.3115E+01  0.0000E+00   2.3115E+01  0.000E+00  0.000E+00  0.000E+00  1.08200E+03  3.746E+00  4.000E+00  0.000E+00  2.249E+00





UNSATURATED ZONE PACKAGE VOLUMETRIC BUDGET FOR  TIME STEP    30 STRESS PERIOD   44
  ------------------------------------------------------------------------------



     CUMULATIVE VOLUMES      L**3       RATES FOR THIS TIME STEP      L**3/T
     ------------------                 ------------------------

           IN:                                      IN:
           ---                                      ---
        INFILTRATION =    95916993.5279          INFILTRATION =           0.8475

          OUT:                                     OUT:
          ----                                     ----
              UZF ET =    95091978.3105                UZF ET =           0.8475
        UZF RECHARGE =       73224.0000          UZF RECHARGE =       0.0000E+00

            IN - OUT =      751791.2173              IN - OUT =       0.0000E+00

          STORAGE:                                 STORAGE:
          --------                                 --------
      STORAGE CHANGE =      751791.5911        STORAGE CHANGE =      -3.3198E-16

 PERCENT DISCREPANCY IS DIFFERENCE BETWEEN IN-OUT MINUS CHANGE IN STORAGE
 DIVIDED BY THE AVERAGE OF IN AND OUT TIMES 100

 PERCENT DISCREPANCY =           0.00     PERCENT DISCREPANCY =           0.00






1
  VOLUMETRIC BUDGET FOR ENTIRE MODEL AT END OF TIME STEP   30, STRESS PERIOD  44
  ------------------------------------------------------------------------------

     CUMULATIVE VOLUMES      L**3       RATES FOR THIS TIME STEP      L**3/T
     ------------------                 ------------------------

           IN:                                      IN:
           ---                                      ---
             STORAGE     =    31714162.0000               STORAGE     =           0.1806
       CONSTANT HEAD     =           0.0000         CONSTANT HEAD     =           0.0000
     HEAD DEP BOUNDS     =    32389622.0000       HEAD DEP BOUNDS     =           0.2864
      STREAM LEAKAGE     =  1329613568.0000        STREAM LEAKAGE     =          11.5578
        UZF RECHARGE     =       73223.9531          UZF RECHARGE     =           0.0000
               GW ET     =           0.0000                 GW ET     =           0.0000
     SURFACE LEAKAGE     =           0.0000       SURFACE LEAKAGE     =           0.0000

                TOTAL IN =  1393790592.0000                  TOTAL IN =          12.0248

          OUT:                                     OUT:
          ----                                     ----
             STORAGE     =   108750832.0000               STORAGE     =           0.6910
       CONSTANT HEAD     =           0.0000         CONSTANT HEAD     =           0.0000
     HEAD DEP BOUNDS     =    32472316.0000       HEAD DEP BOUNDS     =           0.2869
      STREAM LEAKAGE     =  1252585856.0000        STREAM LEAKAGE     =          11.0470
        UZF RECHARGE     =           0.0000          UZF RECHARGE     =           0.0000
               GW ET     =           0.0000                 GW ET     =           0.0000
     SURFACE LEAKAGE     =           0.0000       SURFACE LEAKAGE     =           0.0000

               TOTAL OUT =  1393809024.0000                 TOTAL OUT =          12.0249

                IN - OUT =      -18432.0000                  IN - OUT =      -1.4210E-04

     PERCENT DISCREPANCY =          -0.00         PERCENT DISCREPANCY =          -0.00






         TIME SUMMARY AT END OF TIME STEP   30 IN STRESS PERIOD   44
                    SECONDS     MINUTES      HOURS       DAYS        YEARS
                    -----------------------------------------------------------
   TIME STEP LENGTH  87667.      1461.1      24.352      1.0147     2.77799E-03
 STRESS PERIOD TIME 2.63000E+06  43833.      730.56      30.440     8.33397E-02
         TOTAL TIME 1.13175E+08 1.88626E+06  31438.      1309.9      3.5863    
1
1
                            STRESS PERIOD NO.   45, LENGTH =   2630000.    
                            -----------------------------------------------

                              NUMBER OF TIME STEPS =    30

                               MULTIPLIER FOR DELT =     1.000

                            INITIAL TIME STEP SIZE =   87666.66    

 REUSING NON-PARAMETER GHB CELLS FROM LAST STRESS PERIOD

      2 GHB CELLS

 REUSING STREAM SEGMENT DATA FROM LAST STRESS PERIOD



            AREAL INFILTRATION RATE
 READING ON UNIT   19 WITH FORMAT: (FREE)              

            1           2           3           4           5           6           7           8           9          10
 ........................................................................................................................
   1   1.0000E-10  2.0000E-10   0.000       0.000       0.000       0.000       0.000       0.000       0.000       0.000    
   2   2.0000E-10  1.0000E-10  2.0000E-10   0.000       0.000      8.0000E-10  8.0000E-10  5.0000E-10   0.000       0.000    
   3    0.000      5.0000E-10  1.0000E-10  1.0000E-10  8.0000E-10  8.0000E-10  5.0000E-10  5.0000E-10   0.000       0.000    
   4   8.0000E-10  5.0000E-10  1.0000E-10  1.0000E-10  1.0000E-10  1.0000E-10  1.0000E-10  1.0000E-10  2.0000E-10   0.000    
   5   8.0000E-10  5.0000E-10  1.0000E-10  1.0000E-10  1.0000E-10  1.0000E-10  1.0000E-10  1.0000E-10  1.0000E-10  1.0000E-10
   6   8.0000E-10  5.0000E-10  5.0000E-10  2.0000E-10  2.0000E-10  1.0000E-10  1.0000E-10  1.0000E-10  1.0000E-10  5.0000E-10
   7   8.0000E-10  5.0000E-10  5.0000E-10  2.0000E-10  2.0000E-10  1.0000E-10  1.0000E-10  2.0000E-10  2.0000E-10   0.000    
   8    0.000      5.0000E-10  5.0000E-10  2.0000E-10  2.0000E-10  1.0000E-10  1.0000E-10  2.0000E-10  5.0000E-10   0.000    
   9    0.000      5.0000E-10  5.0000E-10  2.0000E-10  2.0000E-10  1.0000E-10  1.0000E-10  2.0000E-10  5.0000E-10   0.000    
  10    0.000      5.0000E-10  5.0000E-10  2.0000E-10  2.0000E-10  1.0000E-10  1.0000E-10  2.0000E-10  5.0000E-10  8.0000E-10
  11    0.000      1.0000E-10  1.0000E-10  1.0000E-10  1.0000E-10  1.0000E-10  1.0000E-10  2.0000E-10  5.0000E-10   0.000    
  12   1.0000E-10  1.0000E-10  1.0000E-10  1.0000E-10  1.0000E-10  1.0000E-10  1.0000E-10  1.0000E-10  2.0000E-10   0.000    
  13   1.0000E-10  1.0000E-10  2.0000E-10  2.0000E-10  2.0000E-10  2.0000E-10  2.0000E-10  1.0000E-10  1.0000E-10   0.000    
  14    0.000      2.0000E-10  5.0000E-10  5.0000E-10  5.0000E-10  5.0000E-10  5.0000E-10  2.0000E-10  1.0000E-10   0.000    
  15    0.000       0.000      8.0000E-10  8.0000E-10  8.0000E-10  8.0000E-10   0.000       0.000       0.000       0.000    

                  ET RATE =  3.250000E-07

 USING ET EXTINCTION DEPTH FROM PREVIOUS STRESS PERIOD. CURRENT PERIOD IS:      45

 USING EXTINCTION WATER CONTENT FROM PREVIOUS STRESS PERIOD. CURRENT PERIOD IS:      45

 USING AIR ENTRY PRESSURE FROM PREVIOUS STRESS PERIOD. CURRENT PERIOD IS:      45

 USING ROOT PRESSURE HEAD FROM PREVIOUS STRESS PERIOD. CURRENT PERIOD IS:      45

 USING ROOT ACTIVITY FROM PREVIOUS STRESS PERIOD. CURRENT PERIOD IS:      45
 
 SOLVING FOR HEAD 
                                                   Max.-Head-Change                         Max.-Flux-Residual
  Residual-Control   Outer-Iter.   Inner-Iter.     Column Row Layer    Maximum-Head-Change  Column Row Layer    Maximum-Flux-Residual          L2-NORM 
          0                 1           2             2    1     1       0.1792950009E-02       2    1    1         0.9313285787E-01      0.1625748025E+00
          0                 2           2             2    1     1      -0.1744052887E-03       2    1    1        -0.9313295323E-02      0.1625748969E-01
          0                 3           1             2    1     1       0.1187635187E-04       2    1    1         0.6519308843E-03      0.1138025608E-02

    ------------------------------------------------
       NWT REQUIRED            3 OUTER ITERATIONS 
       AND A TOTAL OF          5 INNER ITERATIONS.
    ------------------------------------------------

 NO OUTPUT CONTROL FOR STRESS PERIOD   45   TIME STEP    1
 
 SOLVING FOR HEAD 
                                                   Max.-Head-Change                         Max.-Flux-Residual
  Residual-Control   Outer-Iter.   Inner-Iter.     Column Row Layer    Maximum-Head-Change  Column Row Layer    Maximum-Flux-Residual          L2-NORM 
          0                 1           2             2    1     1       0.1790009780E-02       2    1    1         0.9297928712E-01      0.1611448112E+00
          0                 2           2             2    1     1      -0.1741192832E-03       2    1    1        -0.9297938171E-02      0.1611449055E-01
          0                 3           1             2    1     1       0.1185687626E-04       2    1    1         0.6508558802E-03      0.1128015955E-02

    ------------------------------------------------
       NWT REQUIRED            3 OUTER ITERATIONS 
       AND A TOTAL OF          5 INNER ITERATIONS.
    ------------------------------------------------

 NO OUTPUT CONTROL FOR STRESS PERIOD   45   TIME STEP    2
 
 SOLVING FOR HEAD 
                                                   Max.-Head-Change                         Max.-Flux-Residual
  Residual-Control   Outer-Iter.   Inner-Iter.     Column Row Layer    Maximum-Head-Change  Column Row Layer    Maximum-Flux-Residual          L2-NORM 
          0                 1           2             2    1     1       0.1787068621E-02       2    1    1         0.9282568627E-01      0.1597923861E+00
          0                 2           2             2    1     1      -0.1738331877E-03       2    1    1        -0.9282578036E-02      0.1597924817E-01
          0                 3           1             2    1     1       0.1183739427E-04       2    1    1         0.6497806645E-03      0.1118547944E-02

    ------------------------------------------------
       NWT REQUIRED            3 OUTER ITERATIONS 
       AND A TOTAL OF          5 INNER ITERATIONS.
    ------------------------------------------------

 NO OUTPUT CONTROL FOR STRESS PERIOD   45   TIME STEP    3
 
 SOLVING FOR HEAD 
                                                   Max.-Head-Change                         Max.-Flux-Residual
  Residual-Control   Outer-Iter.   Inner-Iter.     Column Row Layer    Maximum-Head-Change  Column Row Layer    Maximum-Flux-Residual          L2-NORM 
          0                 1           2             2    1     1       0.1784148636E-02       2    1    1         0.9267319032E-01      0.1585136663E+00
          0                 2           2             2    1     1      -0.1735491510E-03       2    1    1        -0.9267328347E-02      0.1585137533E-01
          0                 3           1             2    1     1       0.1181805191E-04       2    1    1         0.6487131630E-03      0.1109596516E-02

    ------------------------------------------------
       NWT REQUIRED            3 OUTER ITERATIONS 
       AND A TOTAL OF          5 INNER ITERATIONS.
    ------------------------------------------------

 NO OUTPUT CONTROL FOR STRESS PERIOD   45   TIME STEP    4
 
 SOLVING FOR HEAD 
                                                   Max.-Head-Change                         Max.-Flux-Residual
  Residual-Control   Outer-Iter.   Inner-Iter.     Column Row Layer    Maximum-Head-Change  Column Row Layer    Maximum-Flux-Residual          L2-NORM 
          0                 1           2             2    1     1       0.1781271749E-02       2    1    1         0.9252294559E-01      0.1572989466E+00
          0                 2           2             2    1     1      -0.1732693076E-03       2    1    1        -0.9252303815E-02      0.1572990307E-01
          0                 3           1             2    1     1       0.1179899569E-04       2    1    1         0.6476614538E-03      0.1101096880E-02

    ------------------------------------------------
       NWT REQUIRED            3 OUTER ITERATIONS 
       AND A TOTAL OF          5 INNER ITERATIONS.
    ------------------------------------------------

 NO OUTPUT CONTROL FOR STRESS PERIOD   45   TIME STEP    5
 
 SOLVING FOR HEAD 
                                                   Max.-Head-Change                         Max.-Flux-Residual
  Residual-Control   Outer-Iter.   Inner-Iter.     Column Row Layer    Maximum-Head-Change  Column Row Layer    Maximum-Flux-Residual          L2-NORM 
          0                 1           2             2    1     1       0.1778393269E-02       2    1    1         0.9237262883E-01      0.1561437545E+00
          0                 2           2             2    1     1      -0.1729893087E-03       2    1    1        -0.9237272051E-02      0.1561438423E-01
          0                 3           1             2    1     1       0.1177992929E-04       2    1    1         0.6466092424E-03      0.1093007332E-02

    ------------------------------------------------
       NWT REQUIRED            3 OUTER ITERATIONS 
       AND A TOTAL OF          5 INNER ITERATIONS.
    ------------------------------------------------

 NO OUTPUT CONTROL FOR STRESS PERIOD   45   TIME STEP    6
 
 SOLVING FOR HEAD 
                                                   Max.-Head-Change                         Max.-Flux-Residual
  Residual-Control   Outer-Iter.   Inner-Iter.     Column Row Layer    Maximum-Head-Change  Column Row Layer    Maximum-Flux-Residual          L2-NORM 
          0                 1           2             2    1     1       0.1775535181E-02       2    1    1         0.9222338274E-01      0.1550452963E+00
          0                 2           2             2    1     1      -0.1727112936E-03       2    1    1        -0.9222347380E-02      0.1550453824E-01
          0                 3           1             2    1     1       0.1176099732E-04       2    1    1         0.6455644947E-03      0.1085322036E-02

    ------------------------------------------------
       NWT REQUIRED            3 OUTER ITERATIONS 
       AND A TOTAL OF          5 INNER ITERATIONS.
    ------------------------------------------------

 NO OUTPUT CONTROL FOR STRESS PERIOD   45   TIME STEP    7
 
 SOLVING FOR HEAD 
                                                   Max.-Head-Change                         Max.-Flux-Residual
  Residual-Control   Outer-Iter.   Inner-Iter.     Column Row Layer    Maximum-Head-Change  Column Row Layer    Maximum-Flux-Residual          L2-NORM 
          0                 1           2             2    1     1       0.1772697234E-02       2    1    1         0.9207519400E-01      0.1539981984E+00
          0                 2           2             2    1     1      -0.1724352377E-03       2    1    1        -0.9207528431E-02      0.1539982827E-01
          0                 3           1             2    1     1       0.1174219931E-04       2    1    1         0.6445271869E-03      0.1077988415E-02

    ------------------------------------------------
       NWT REQUIRED            3 OUTER ITERATIONS 
       AND A TOTAL OF          5 INNER ITERATIONS.
    ------------------------------------------------

 NO OUTPUT CONTROL FOR STRESS PERIOD   45   TIME STEP    8
 
 SOLVING FOR HEAD 
                                                   Max.-Head-Change                         Max.-Flux-Residual
  Residual-Control   Outer-Iter.   Inner-Iter.     Column Row Layer    Maximum-Head-Change  Column Row Layer    Maximum-Flux-Residual          L2-NORM 
          0                 1           2             2    1     1       0.1769901472E-02       2    1    1         0.9192920305E-01      0.1530025622E+00
          0                 2           2             2    1     1      -0.1721632854E-03       2    1    1        -0.9192929273E-02      0.1530026457E-01
          0                 3           1             2    1     1       0.1172368033E-04       2    1    1         0.6435052473E-03      0.1071018666E-02

    ------------------------------------------------
       NWT REQUIRED            3 OUTER ITERATIONS 
       AND A TOTAL OF          5 INNER ITERATIONS.
    ------------------------------------------------

 NO OUTPUT CONTROL FOR STRESS PERIOD   45   TIME STEP    9
 
 SOLVING FOR HEAD 
                                                   Max.-Head-Change                         Max.-Flux-Residual
  Residual-Control   Outer-Iter.   Inner-Iter.     Column Row Layer    Maximum-Head-Change  Column Row Layer    Maximum-Flux-Residual          L2-NORM 
          0                 1           2             2    1     1       0.1767103107E-02       2    1    1         0.9178309228E-01      0.1520571835E+00
          0                 2           2             2    1     1      -0.1718910796E-03       2    1    1        -0.9178318133E-02      0.1520572660E-01
          0                 3           1             2    1     1       0.1170514361E-04       2    1    1         0.6424824492E-03      0.1064401789E-02

    ------------------------------------------------
       NWT REQUIRED            3 OUTER ITERATIONS 
       AND A TOTAL OF          5 INNER ITERATIONS.
    ------------------------------------------------

 NO OUTPUT CONTROL FOR STRESS PERIOD   45   TIME STEP   10
 
 SOLVING FOR HEAD 
                                                   Max.-Head-Change                         Max.-Flux-Residual
  Residual-Control   Outer-Iter.   Inner-Iter.     Column Row Layer    Maximum-Head-Change  Column Row Layer    Maximum-Flux-Residual          L2-NORM 
          0                 1           2             2    1     1       0.1764324146E-02       2    1    1         0.9163800010E-01      0.1511444944E+00
          0                 2           2             2    1     1      -0.1716207615E-03       2    1    1        -0.9163808840E-02      0.1511445629E-01
          0                 3           1             2    1     1       0.1168673611E-04       2    1    1         0.6414668055E-03      0.1058012338E-02

    ------------------------------------------------
       NWT REQUIRED            3 OUTER ITERATIONS 
       AND A TOTAL OF          5 INNER ITERATIONS.
    ------------------------------------------------

 NO OUTPUT CONTROL FOR STRESS PERIOD   45   TIME STEP   11
 
 SOLVING FOR HEAD 
                                                   Max.-Head-Change                         Max.-Flux-Residual
  Residual-Control   Outer-Iter.   Inner-Iter.     Column Row Layer    Maximum-Head-Change  Column Row Layer    Maximum-Flux-Residual          L2-NORM 
          0                 1           2             2    1     1       0.1761564453E-02       2    1    1         0.9149391400E-01      0.1502785677E+00
          0                 2           2             2    1     1      -0.1713523179E-03       2    1    1        -0.9149400180E-02      0.1502786547E-01
          0                 3           1             2    1     1       0.1166845641E-04       2    1    1         0.6404582045E-03      0.1051951646E-02

    ------------------------------------------------
       NWT REQUIRED            3 OUTER ITERATIONS 
       AND A TOTAL OF          5 INNER ITERATIONS.
    ------------------------------------------------

 NO OUTPUT CONTROL FOR STRESS PERIOD   45   TIME STEP   12
 
 SOLVING FOR HEAD 
                                                   Max.-Head-Change                         Max.-Flux-Residual
  Residual-Control   Outer-Iter.   Inner-Iter.     Column Row Layer    Maximum-Head-Change  Column Row Layer    Maximum-Flux-Residual          L2-NORM 
          0                 1           2             2    1     1       0.1758823793E-02       2    1    1         0.9135082692E-01      0.1494513612E+00
          0                 2           2             2    1     1      -0.1710857256E-03       2    1    1        -0.9135091410E-02      0.1494514430E-01
          0                 3           1             2    1     1       0.1165030239E-04       2    1    1         0.6394565868E-03      0.1046160450E-02

    ------------------------------------------------
       NWT REQUIRED            3 OUTER ITERATIONS 
       AND A TOTAL OF          5 INNER ITERATIONS.
    ------------------------------------------------

 NO OUTPUT CONTROL FOR STRESS PERIOD   45   TIME STEP   13
 
 SOLVING FOR HEAD 
                                                   Max.-Head-Change                         Max.-Flux-Residual
  Residual-Control   Outer-Iter.   Inner-Iter.     Column Row Layer    Maximum-Head-Change  Column Row Layer    Maximum-Flux-Residual          L2-NORM 
          0                 1           2             2    1     1       0.1756101833E-02       2    1    1         0.9120872669E-01      0.1486507734E+00
          0                 2           2             2    1     1      -0.1708209518E-03       2    1    1        -0.9120881308E-02      0.1486508457E-01
          0                 3           1             2    1     1       0.1163227262E-04       2    1    1         0.6384618852E-03      0.1040561224E-02

    ------------------------------------------------
       NWT REQUIRED            3 OUTER ITERATIONS 
       AND A TOTAL OF          5 INNER ITERATIONS.
    ------------------------------------------------

 NO OUTPUT CONTROL FOR STRESS PERIOD   45   TIME STEP   14
 
 SOLVING FOR HEAD 
                                                   Max.-Head-Change                         Max.-Flux-Residual
  Residual-Control   Outer-Iter.   Inner-Iter.     Column Row Layer    Maximum-Head-Change  Column Row Layer    Maximum-Flux-Residual          L2-NORM 
          0                 1           2             2    1     1       0.1753398479E-02       2    1    1         0.9106759602E-01      0.1478904620E+00
          0                 2           2             2    1     1      -0.1705579883E-03       2    1    1        -0.9106768189E-02      0.1478909845E-01
          0                 3           1             2    1     1       0.1161436568E-04       2    1    1         0.6374739596E-03      0.1035236857E-02

    ------------------------------------------------
       NWT REQUIRED            3 OUTER ITERATIONS 
       AND A TOTAL OF          5 INNER ITERATIONS.
    ------------------------------------------------

 NO OUTPUT CONTROL FOR STRESS PERIOD   45   TIME STEP   15
 
 SOLVING FOR HEAD 
                                                   Max.-Head-Change                         Max.-Flux-Residual
  Residual-Control   Outer-Iter.   Inner-Iter.     Column Row Layer    Maximum-Head-Change  Column Row Layer    Maximum-Flux-Residual          L2-NORM 
          0                 1           2             2    1     1       0.1750713474E-02       2    1    1         0.9092743002E-01      0.1471564729E+00
          0                 2           2             2    1     1      -0.1702968093E-03       2    1    1        -0.9092751522E-02      0.1471565409E-01
          0                 3           1             2    1     1       0.1159658016E-04       2    1    1         0.6364927858E-03      0.1030096230E-02

    ------------------------------------------------
       NWT REQUIRED            3 OUTER ITERATIONS 
       AND A TOTAL OF          5 INNER ITERATIONS.
    ------------------------------------------------

 NO OUTPUT CONTROL FOR STRESS PERIOD   45   TIME STEP   16
 
 SOLVING FOR HEAD 
                                                   Max.-Head-Change                         Max.-Flux-Residual
  Residual-Control   Outer-Iter.   Inner-Iter.     Column Row Layer    Maximum-Head-Change  Column Row Layer    Maximum-Flux-Residual          L2-NORM 
          0                 1           2             2    1     1       0.1748046496E-02       2    1    1         0.9078821545E-01      0.1464555534E+00
          0                 2           2             2    1     1      -0.1700373848E-03       2    1    1        -0.9078830021E-02      0.1464556393E-01
          0                 3           1             2    1     1       0.1157891463E-04       2    1    1         0.6355183000E-03      0.1025190573E-02

    ------------------------------------------------
       NWT REQUIRED            3 OUTER ITERATIONS 
       AND A TOTAL OF          5 INNER ITERATIONS.
    ------------------------------------------------

 NO OUTPUT CONTROL FOR STRESS PERIOD   45   TIME STEP   17
 
 SOLVING FOR HEAD 
                                                   Max.-Head-Change                         Max.-Flux-Residual
  Residual-Control   Outer-Iter.   Inner-Iter.     Column Row Layer    Maximum-Head-Change  Column Row Layer    Maximum-Flux-Residual          L2-NORM 
          0                 1           2             2    1     1       0.1745397430E-02       2    1    1         0.9064993556E-01      0.1457814555E+00
          0                 2           2             2    1     1      -0.1697797017E-03       2    1    1        -0.9065001948E-02      0.1457815289E-01
          0                 3           1             2    1     1       0.1156136791E-04       2    1    1         0.6345503448E-03      0.1020471117E-02

    ------------------------------------------------
       NWT REQUIRED            3 OUTER ITERATIONS 
       AND A TOTAL OF          5 INNER ITERATIONS.
    ------------------------------------------------

 NO OUTPUT CONTROL FOR STRESS PERIOD   45   TIME STEP   18
 
 SOLVING FOR HEAD 
                                                   Max.-Head-Change                         Max.-Flux-Residual
  Residual-Control   Outer-Iter.   Inner-Iter.     Column Row Layer    Maximum-Head-Change  Column Row Layer    Maximum-Flux-Residual          L2-NORM 
          0                 1           2             2    1     1       0.1742766063E-02       2    1    1         0.9051258441E-01      0.1451340709E+00
          0                 2           2             2    1     1      -0.1695237408E-03       2    1    1        -0.9051266792E-02      0.1451341492E-01
          0                 3           1             2    1     1       0.1154393787E-04       2    1    1         0.6335888787E-03      0.1015939695E-02

    ------------------------------------------------
       NWT REQUIRED            3 OUTER ITERATIONS 
       AND A TOTAL OF          5 INNER ITERATIONS.
    ------------------------------------------------

 NO OUTPUT CONTROL FOR STRESS PERIOD   45   TIME STEP   19
 
 SOLVING FOR HEAD 
                                                   Max.-Head-Change                         Max.-Flux-Residual
  Residual-Control   Outer-Iter.   Inner-Iter.     Column Row Layer    Maximum-Head-Change  Column Row Layer    Maximum-Flux-Residual          L2-NORM 
          0                 1           2             2    1     1       0.1740152182E-02       2    1    1         0.9037615090E-01      0.1445093172E+00
          0                 2           2             2    1     1      -0.1692694800E-03       2    1    1        -0.9037623369E-02      0.1445093790E-01
          0                 3           1             2    1     1       0.1152662309E-04       2    1    1         0.6326338175E-03      0.1011566644E-02

    ------------------------------------------------
       NWT REQUIRED            3 OUTER ITERATIONS 
       AND A TOTAL OF          5 INNER ITERATIONS.
    ------------------------------------------------

 NO OUTPUT CONTROL FOR STRESS PERIOD   45   TIME STEP   20
 
 SOLVING FOR HEAD 
                                                   Max.-Head-Change                         Max.-Flux-Residual
  Residual-Control   Outer-Iter.   Inner-Iter.     Column Row Layer    Maximum-Head-Change  Column Row Layer    Maximum-Flux-Residual          L2-NORM 
          0                 1           2             2    1     1       0.1737555580E-02       2    1    1         0.9024062404E-01      0.1439053427E+00
          0                 2           2             2    1     1      -0.1690169009E-03       2    1    1        -0.9024070625E-02      0.1439054187E-01
          0                 3           1             2    1     1       0.1150942381E-04       2    1    1         0.6316851422E-03      0.1007338860E-02

    ------------------------------------------------
       NWT REQUIRED            3 OUTER ITERATIONS 
       AND A TOTAL OF          5 INNER ITERATIONS.
    ------------------------------------------------

 NO OUTPUT CONTROL FOR STRESS PERIOD   45   TIME STEP   21
 
 SOLVING FOR HEAD 
                                                   Max.-Head-Change                         Max.-Flux-Residual
  Residual-Control   Outer-Iter.   Inner-Iter.     Column Row Layer    Maximum-Head-Change  Column Row Layer    Maximum-Flux-Residual          L2-NORM 
          0                 1           2             2    1     1       0.1734976154E-02       2    1    1         0.9010599306E-01      0.1433294190E+00
          0                 2           2             2    1     1      -0.1687659922E-03       2    1    1        -0.9010607483E-02      0.1433294872E-01
          0                 3           1             2    1     1       0.1149233789E-04       2    1    1         0.6307427126E-03      0.1003306733E-02

    ------------------------------------------------
       NWT REQUIRED            3 OUTER ITERATIONS 
       AND A TOTAL OF          5 INNER ITERATIONS.
    ------------------------------------------------

 NO OUTPUT CONTROL FOR STRESS PERIOD   45   TIME STEP   22
 
 SOLVING FOR HEAD 
                                                   Max.-Head-Change                         Max.-Flux-Residual
  Residual-Control   Outer-Iter.   Inner-Iter.     Column Row Layer    Maximum-Head-Change  Column Row Layer    Maximum-Flux-Residual          L2-NORM 
          0                 1           2             2    1     1       0.1732413598E-02       2    1    1         0.8997225262E-01      0.1427750852E+00
          0                 2           2             2    1     1      -0.1685167247E-03       2    1    1        -0.8997233387E-02      0.1427751532E-01
          0                 3           1             2    1     1       0.1147536368E-04       2    1    1         0.6298065292E-03      0.9994272137E-03

    ------------------------------------------------
       NWT REQUIRED            3 OUTER ITERATIONS 
       AND A TOTAL OF          5 INNER ITERATIONS.
    ------------------------------------------------

 NO OUTPUT CONTROL FOR STRESS PERIOD   45   TIME STEP   23
 
 SOLVING FOR HEAD 
                                                   Max.-Head-Change                         Max.-Flux-Residual
  Residual-Control   Outer-Iter.   Inner-Iter.     Column Row Layer    Maximum-Head-Change  Column Row Layer    Maximum-Flux-Residual          L2-NORM 
          0                 1           2             2    1     1       0.1729867715E-02       2    1    1         0.8983938693E-01      0.1422368729E+00
          0                 2           2             2    1     1      -0.1682690785E-03       2    1    1        -0.8983946735E-02      0.1422369349E-01
          0                 3           1             2    1     1       0.1145850024E-04       2    1    1         0.6288764808E-03      0.9956587909E-03

    ------------------------------------------------
       NWT REQUIRED            3 OUTER ITERATIONS 
       AND A TOTAL OF          5 INNER ITERATIONS.
    ------------------------------------------------

 NO OUTPUT CONTROL FOR STRESS PERIOD   45   TIME STEP   24
 
 SOLVING FOR HEAD 
                                                   Max.-Head-Change                         Max.-Flux-Residual
  Residual-Control   Outer-Iter.   Inner-Iter.     Column Row Layer    Maximum-Head-Change  Column Row Layer    Maximum-Flux-Residual          L2-NORM 
          0                 1           2             2    1     1       0.1727338307E-02       2    1    1         0.8970738566E-01      0.1417155366E+00
          0                 2           2             2    1     1      -0.1680230354E-03       2    1    1        -0.8970746560E-02      0.1417156189E-01
          0                 3           1             2    1     1       0.1144174567E-04       2    1    1         0.6279524676E-03      0.9920176166E-03

    ------------------------------------------------
       NWT REQUIRED            3 OUTER ITERATIONS 
       AND A TOTAL OF          5 INNER ITERATIONS.
    ------------------------------------------------

 NO OUTPUT CONTROL FOR STRESS PERIOD   45   TIME STEP   25
 
 SOLVING FOR HEAD 
                                                   Max.-Head-Change                         Max.-Flux-Residual
  Residual-Control   Outer-Iter.   Inner-Iter.     Column Row Layer    Maximum-Head-Change  Column Row Layer    Maximum-Flux-Residual          L2-NORM 
          0                 1           2             2    1     1       0.1724825286E-02       2    1    1         0.8957623866E-01      0.1412192009E+00
          0                 2           2             2    1     1      -0.1677785858E-03       2    1    1        -0.8957631805E-02      0.1412192708E-01
          0                 3           1             2    1     1       0.1142509925E-04       2    1    1         0.6270344157E-03      0.9885354509E-03

    ------------------------------------------------
       NWT REQUIRED            3 OUTER ITERATIONS 
       AND A TOTAL OF          5 INNER ITERATIONS.
    ------------------------------------------------

 NO OUTPUT CONTROL FOR STRESS PERIOD   45   TIME STEP   26
 
 SOLVING FOR HEAD 
                                                   Max.-Head-Change                         Max.-Flux-Residual
  Residual-Control   Outer-Iter.   Inner-Iter.     Column Row Layer    Maximum-Head-Change  Column Row Layer    Maximum-Flux-Residual          L2-NORM 
          0                 1           2             2    1     1       0.1722328357E-02       2    1    1         0.8944594125E-01      0.1407387431E+00
          0                 2           2             2    1     1      -0.1675357020E-03       2    1    1        -0.8944602017E-02      0.1407388072E-01
          0                 3           1             2    1     1       0.1140855981E-04       2    1    1         0.6261223343E-03      0.9851771492E-03

    ------------------------------------------------
       NWT REQUIRED            3 OUTER ITERATIONS 
       AND A TOTAL OF          5 INNER ITERATIONS.
    ------------------------------------------------

 NO OUTPUT CONTROL FOR STRESS PERIOD   45   TIME STEP   27
 
 SOLVING FOR HEAD 
                                                   Max.-Head-Change                         Max.-Flux-Residual
  Residual-Control   Outer-Iter.   Inner-Iter.     Column Row Layer    Maximum-Head-Change  Column Row Layer    Maximum-Flux-Residual          L2-NORM 
          0                 1           2             2    1     1       0.1719847435E-02       2    1    1         0.8931647822E-01      0.1402706872E+00
          0                 2           2             2    1     1      -0.1672943753E-03       2    1    1        -0.8931655664E-02      0.1402707483E-01
          0                 3           1             2    1     1       0.1139212640E-04       2    1    1         0.6252160813E-03      0.9818959421E-03

    ------------------------------------------------
       NWT REQUIRED            3 OUTER ITERATIONS 
       AND A TOTAL OF          5 INNER ITERATIONS.
    ------------------------------------------------

 NO OUTPUT CONTROL FOR STRESS PERIOD   45   TIME STEP   28
 
 SOLVING FOR HEAD 
                                                   Max.-Head-Change                         Max.-Flux-Residual
  Residual-Control   Outer-Iter.   Inner-Iter.     Column Row Layer    Maximum-Head-Change  Column Row Layer    Maximum-Flux-Residual          L2-NORM 
          0                 1           2             2    1     1       0.1717360051E-02       2    1    1         0.8918669052E-01      0.1398184362E+00
          0                 2           2             2    1     1      -0.1670524196E-03       2    1    1        -0.8918676828E-02      0.1398185009E-01
          0                 3           1             2    1     1       0.1137565016E-04       2    1    1         0.6243075680E-03      0.9787303823E-03

    ------------------------------------------------
       NWT REQUIRED            3 OUTER ITERATIONS 
       AND A TOTAL OF          5 INNER ITERATIONS.
    ------------------------------------------------

 NO OUTPUT CONTROL FOR STRESS PERIOD   45   TIME STEP   29
 
 SOLVING FOR HEAD 
                                                   Max.-Head-Change                         Max.-Flux-Residual
  Residual-Control   Outer-Iter.   Inner-Iter.     Column Row Layer    Maximum-Head-Change  Column Row Layer    Maximum-Flux-Residual          L2-NORM 
          0                 1           2             2    1     1       0.1714910577E-02       2    1    1         0.8905887703E-01      0.1393843528E+00
          0                 2           2             2    1     1      -0.1668141523E-03       2    1    1        -0.8905895456E-02      0.1393844018E-01
          0                 3           1             2    1     1       0.1135942526E-04       2    1    1         0.6234128709E-03      0.9756948865E-03

    ------------------------------------------------
       NWT REQUIRED            3 OUTER ITERATIONS 
       AND A TOTAL OF          5 INNER ITERATIONS.
    ------------------------------------------------

 NO OUTPUT CONTROL FOR STRESS PERIOD   45   TIME STEP   30



 STREAM LISTING     PERIOD     45   STEP       30

 LAYER ROW COL. STREAM  RCH.  FLOW INTO     FLOW TO   FLOW OUT OF   OVRLND.     DIRECT     STREAM       STREAM     STREAM     STREAM   STREAMBED  STREAMBED
                SEG.NO.  NO.  STRM. RCH.    AQUIFER    STRM. RCH.    RUNOFF     PRECIP       ET          HEAD       DEPTH      WIDTH   CONDCTNC.   GRADIENT

   1    1    1     1     1    2.7749E+01  2.5751E-01   2.7492E+01  0.000E+00  0.000E+00  0.000E+00  1.09427E+03  1.218E+00  1.357E+01  6.105E-02  1.406E+00
   1    2    2     1     2    2.7492E+01  3.9832E-01   2.7093E+01  0.000E+00  0.000E+00  0.000E+00  1.08927E+03  1.213E+00  1.351E+01  9.454E-02  1.404E+00
   1    3    3     1     3    2.7093E+01  3.3923E-01   2.6754E+01  0.000E+00  0.000E+00  0.000E+00  1.08363E+03  1.208E+00  1.344E+01  8.062E-02  1.403E+00
   1    3    4     1     4    2.6754E+01  3.1200E-01   2.6442E+01  0.000E+00  0.000E+00  0.000E+00  1.07861E+03  1.203E+00  1.337E+01  7.422E-02  1.401E+00
   1    4    5     2     1    2.4442E+01  3.2655E-01   2.4116E+01  0.000E+00  0.000E+00  0.000E+00  1.07312E+03  1.187E+00  1.200E+01  7.800E-02  1.396E+00
   1    5    6     2     2    2.4116E+01  2.5068E-01   2.3865E+01  0.000E+00  0.000E+00  0.000E+00  1.06769E+03  1.178E+00  1.200E+01  6.000E-02  1.393E+00
   1    6    6     2     3    2.3865E+01  2.5024E-01   2.3615E+01  0.000E+00  0.000E+00  0.000E+00  1.06296E+03  1.171E+00  1.200E+01  6.000E-02  1.390E+00
   1    7    6     2     4    2.3615E+01  2.4979E-01   2.3365E+01  0.000E+00  0.000E+00  0.000E+00  1.05824E+03  1.163E+00  1.200E+01  6.000E-02  1.388E+00
   1    8    6     2     5    2.3365E+01  2.4935E-01   2.3115E+01  0.000E+00  0.000E+00  0.000E+00  1.05351E+03  1.156E+00  1.200E+01  6.000E-02  1.385E+00
   1    3    5     3     1    2.0000E+00  2.8252E-01   1.7175E+00  0.000E+00  0.000E+00  0.000E+00  1.07555E+03  1.909E+00  9.636E+00  7.227E-02  1.955E+00
   1    3    6     3     2    1.7175E+00  2.4905E-01   1.4684E+00  0.000E+00  0.000E+00  0.000E+00  1.07264E+03  1.727E+00  8.909E+00  6.682E-02  1.864E+00
   1    3    7     3     3    1.4684E+00  1.9718E-01   1.2712E+00  0.000E+00  0.000E+00  0.000E+00  1.06987E+03  1.555E+00  8.218E+00  5.547E-02  1.777E+00
   1    4    8     3     4    1.2712E+00  2.2567E-01   1.0456E+00  0.000E+00  0.000E+00  0.000E+00  1.06682E+03  1.364E+00  7.455E+00  6.709E-02  1.682E+00
   1    5    8     3     5    1.0456E+00  1.5790E-01   8.8768E-01  0.000E+00  0.000E+00  0.000E+00  1.06362E+03  1.164E+00  6.655E+00  4.991E-02  1.582E+00
   1    6    8     3     6    8.8768E-01  5.5980E-02   8.3170E-01  0.000E+00  0.000E+00  0.000E+00  1.06158E+03  1.036E+00  6.145E+00  1.844E-02  1.518E+00
   1    5   10     4     1    1.0000E+01  9.0919E-02   9.9091E+00  0.000E+00  0.000E+00  0.000E+00  1.07836E+03  6.368E-01  1.000E+01  2.500E-02  1.212E+00
   1    5    9     4     2    9.9091E+00  1.8158E-01   9.7275E+00  0.000E+00  0.000E+00  0.000E+00  1.07154E+03  6.315E-01  1.000E+01  5.000E-02  1.211E+00
   1    6    8     4     3    9.7275E+00  1.2689E-01   9.6006E+00  0.000E+00  0.000E+00  0.000E+00  1.06381E+03  6.256E-01  1.000E+01  3.500E-02  1.209E+00
   1    6    8     5     1    1.0432E+01  2.2686E-01   1.0205E+01  0.000E+00  0.000E+00  0.000E+00  1.05868E+03  6.790E-01  1.542E+01  6.166E-02  1.226E+00
   1    7    7     5     2    1.0205E+01  2.7894E-01   9.9265E+00  0.000E+00  0.000E+00  0.000E+00  1.05417E+03  6.732E-01  1.519E+01  7.594E-02  1.224E+00
   1    8    7     5     3    9.9265E+00  1.9221E-01   9.7343E+00  0.000E+00  0.000E+00  0.000E+00  1.04992E+03  6.676E-01  1.497E+01  5.241E-02  1.223E+00
   1    8    6     5     4    9.7343E+00  1.3577E-01   9.5985E+00  0.000E+00  0.000E+00  0.000E+00  1.04691E+03  6.637E-01  1.482E+01  3.706E-02  1.221E+00
   1    9    6     6     1    9.5985E+00  2.2097E-01   9.3776E+00  0.000E+00  0.000E+00  0.000E+00  1.04341E+03  6.828E-01  1.200E+01  6.000E-02  1.228E+00
   1   10    7     6     2    9.3776E+00  2.2039E-01   9.1572E+00  0.000E+00  0.000E+00  0.000E+00  1.03885E+03  6.732E-01  1.200E+01  6.000E-02  1.224E+00
   1   11    7     6     3    9.1572E+00  2.1981E-01   8.9374E+00  0.000E+00  0.000E+00  0.000E+00  1.03430E+03  6.636E-01  1.200E+01  6.000E-02  1.221E+00
   1   12    7     6     4    8.9374E+00  2.1923E-01   8.7181E+00  0.000E+00  0.000E+00  0.000E+00  1.02974E+03  6.539E-01  1.200E+01  6.000E-02  1.218E+00
   1   13    7     6     5    8.7181E+00 -1.1042E-01   8.8285E+00  0.000E+00  0.000E+00  0.000E+00  1.02656E+03  6.514E-01  1.200E+01  2.400E-01 -1.534E-01
   1   14    9     7     1    1.5000E+02  1.3458E+00   1.4865E+02  0.000E+00  0.000E+00  0.000E+00  1.03987E+03  2.288E+00  5.529E+01  5.593E-01  8.021E-01
   1   13    8     7     2    1.4865E+02  1.8507E+00   1.4680E+02  0.000E+00  0.000E+00  0.000E+00  1.03478E+03  2.279E+00  5.526E+01  6.148E-01  1.003E+00
   1   13    7     7     3    1.4680E+02  1.4905E+00   1.4531E+02  0.000E+00  0.000E+00  0.000E+00  1.02969E+03  2.270E+00  5.522E+01  5.584E-01  8.897E-01
   1   13    6     8     1    1.5414E+02  8.4271E-01   1.5330E+02  0.000E+00  0.000E+00  0.000E+00  1.02472E+03  2.843E+00  4.122E+01  4.201E-01  6.687E-01
   1   13    5     8     2    1.5330E+02  1.1233E-01   1.5319E+02  0.000E+00  0.000E+00  0.000E+00  1.01846E+03  2.840E+00  4.117E+01  4.196E-01  8.925E-02
   1   13    4     8     3    1.5319E+02 -2.6396E+00   1.5583E+02  0.000E+00  0.000E+00  0.000E+00  1.01222E+03  2.848E+00  4.130E+01  4.209E+00 -2.091E-01
   1   13    3     8     4    1.5583E+02 -3.7259E+00   1.5955E+02  0.000E+00  0.000E+00  0.000E+00  1.00600E+03  2.870E+00  4.162E+01  4.241E+00 -2.929E-01
   1   13    2     8     5    1.5955E+02 -2.5921E+00   1.6214E+02  0.000E+00  0.000E+00  0.000E+00  9.99767E+02  2.892E+00  4.193E+01  4.273E+00 -2.022E-01
   1   13    1     8     6    1.6214E+02 -1.9791E+00   1.6412E+02  0.000E+00  0.000E+00  0.000E+00  9.94782E+02  2.907E+00  4.215E+01  2.577E+00 -2.560E-01
   1    8    6     9     1    2.3115E+01  0.0000E+00   2.3115E+01  0.000E+00  0.000E+00  0.000E+00  1.08250E+03  3.746E+00  4.000E+00  0.000E+00  2.249E+00
   1    8    5     9     2    2.3115E+01  0.0000E+00   2.3115E+01  0.000E+00  0.000E+00  0.000E+00  1.08200E+03  3.746E+00  4.000E+00  0.000E+00  2.249E+00





UNSATURATED ZONE PACKAGE VOLUMETRIC BUDGET FOR  TIME STEP    30 STRESS PERIOD   45
  ------------------------------------------------------------------------------



     CUMULATIVE VOLUMES      L**3       RATES FOR THIS TIME STEP      L**3/T
     ------------------                 ------------------------

           IN:                                      IN:
           ---                                      ---
        INFILTRATION =    98145918.4006          INFILTRATION =           0.8475

          OUT:                                     OUT:
          ----                                     ----
              UZF ET =    97320903.1833                UZF ET =           0.8475
        UZF RECHARGE =       73224.0000          UZF RECHARGE =       0.0000E+00

            IN - OUT =      751791.2173              IN - OUT =       0.0000E+00

          STORAGE:                                 STORAGE:
          --------                                 --------
      STORAGE CHANGE =      751791.5911        STORAGE CHANGE =      -1.6599E-15

 PERCENT DISCREPANCY IS DIFFERENCE BETWEEN IN-OUT MINUS CHANGE IN STORAGE
 DIVIDED BY THE AVERAGE OF IN AND OUT TIMES 100

 PERCENT DISCREPANCY =           0.00     PERCENT DISCREPANCY =           0.00






1
  VOLUMETRIC BUDGET FOR ENTIRE MODEL AT END OF TIME STEP   30, STRESS PERIOD  45
  ------------------------------------------------------------------------------

     CUMULATIVE VOLUMES      L**3       RATES FOR THIS TIME STEP      L**3/T
     ------------------                 ------------------------

           IN:                                      IN:
           ---                                      ---
             STORAGE     =    32029324.0000               STORAGE     =       8.5918E-02
       CONSTANT HEAD     =           0.0000         CONSTANT HEAD     =           0.0000
     HEAD DEP BOUNDS     =    33142970.0000       HEAD DEP BOUNDS     =           0.2864
      STREAM LEAKAGE     =  1360011008.0000        STREAM LEAKAGE     =          11.5577
        UZF RECHARGE     =       73223.9531          UZF RECHARGE     =           0.0000
               GW ET     =           0.0000                 GW ET     =           0.0000
     SURFACE LEAKAGE     =           0.0000       SURFACE LEAKAGE     =           0.0000

                TOTAL IN =  1425256576.0000                  TOTAL IN =          11.9300

          OUT:                                     OUT:
          ----                                     ----
             STORAGE     =   110408192.0000               STORAGE     =           0.5961
       CONSTANT HEAD     =           0.0000         CONSTANT HEAD     =           0.0000
     HEAD DEP BOUNDS     =    33226876.0000       HEAD DEP BOUNDS     =           0.2869
      STREAM LEAKAGE     =  1281639296.0000        STREAM LEAKAGE     =          11.0471
        UZF RECHARGE     =           0.0000          UZF RECHARGE     =           0.0000
               GW ET     =           0.0000                 GW ET     =           0.0000
     SURFACE LEAKAGE     =           0.0000       SURFACE LEAKAGE     =           0.0000

               TOTAL OUT =  1425274368.0000                 TOTAL OUT =          11.9302

                IN - OUT =      -17792.0000                  IN - OUT =      -1.4210E-04

     PERCENT DISCREPANCY =          -0.00         PERCENT DISCREPANCY =          -0.00






         TIME SUMMARY AT END OF TIME STEP   30 IN STRESS PERIOD   45
                    SECONDS     MINUTES      HOURS       DAYS        YEARS
                    -----------------------------------------------------------
   TIME STEP LENGTH  87667.      1461.1      24.352      1.0147     2.77799E-03
 STRESS PERIOD TIME 2.63000E+06  43833.      730.56      30.440     8.33397E-02
         TOTAL TIME 1.15805E+08 1.93009E+06  32168.      1340.3      3.6696    
1
1
                            STRESS PERIOD NO.   46, LENGTH =   2630000.    
                            -----------------------------------------------

                              NUMBER OF TIME STEPS =    30

                               MULTIPLIER FOR DELT =     1.000

                            INITIAL TIME STEP SIZE =   87666.66    

 REUSING NON-PARAMETER GHB CELLS FROM LAST STRESS PERIOD

      2 GHB CELLS

 REUSING STREAM SEGMENT DATA FROM LAST STRESS PERIOD



            AREAL INFILTRATION RATE
 READING ON UNIT   19 WITH FORMAT: (FREE)              

            1           2           3           4           5           6           7           8           9          10
 ........................................................................................................................
   1   1.0000E-10  2.0000E-10   0.000       0.000       0.000       0.000       0.000       0.000       0.000       0.000    
   2   2.0000E-10  1.0000E-10  2.0000E-10   0.000       0.000      8.0000E-10  8.0000E-10  5.0000E-10   0.000       0.000    
   3    0.000      5.0000E-10  1.0000E-10  1.0000E-10  8.0000E-10  8.0000E-10  5.0000E-10  5.0000E-10   0.000       0.000    
   4   8.0000E-10  5.0000E-10  1.0000E-10  1.0000E-10  1.0000E-10  1.0000E-10  1.0000E-10  1.0000E-10  2.0000E-10   0.000    
   5   8.0000E-10  5.0000E-10  1.0000E-10  1.0000E-10  1.0000E-10  1.0000E-10  1.0000E-10  1.0000E-10  1.0000E-10  1.0000E-10
   6   8.0000E-10  5.0000E-10  5.0000E-10  2.0000E-10  2.0000E-10  1.0000E-10  1.0000E-10  1.0000E-10  1.0000E-10  5.0000E-10
   7   8.0000E-10  5.0000E-10  5.0000E-10  2.0000E-10  2.0000E-10  1.0000E-10  1.0000E-10  2.0000E-10  2.0000E-10   0.000    
   8    0.000      5.0000E-10  5.0000E-10  2.0000E-10  2.0000E-10  1.0000E-10  1.0000E-10  2.0000E-10  5.0000E-10   0.000    
   9    0.000      5.0000E-10  5.0000E-10  2.0000E-10  2.0000E-10  1.0000E-10  1.0000E-10  2.0000E-10  5.0000E-10   0.000    
  10    0.000      5.0000E-10  5.0000E-10  2.0000E-10  2.0000E-10  1.0000E-10  1.0000E-10  2.0000E-10  5.0000E-10  8.0000E-10
  11    0.000      1.0000E-10  1.0000E-10  1.0000E-10  1.0000E-10  1.0000E-10  1.0000E-10  2.0000E-10  5.0000E-10   0.000    
  12   1.0000E-10  1.0000E-10  1.0000E-10  1.0000E-10  1.0000E-10  1.0000E-10  1.0000E-10  1.0000E-10  2.0000E-10   0.000    
  13   1.0000E-10  1.0000E-10  2.0000E-10  2.0000E-10  2.0000E-10  2.0000E-10  2.0000E-10  1.0000E-10  1.0000E-10   0.000    
  14    0.000      2.0000E-10  5.0000E-10  5.0000E-10  5.0000E-10  5.0000E-10  5.0000E-10  2.0000E-10  1.0000E-10   0.000    
  15    0.000       0.000      8.0000E-10  8.0000E-10  8.0000E-10  8.0000E-10   0.000       0.000       0.000       0.000    

                  ET RATE =  7.500000E-08

 USING ET EXTINCTION DEPTH FROM PREVIOUS STRESS PERIOD. CURRENT PERIOD IS:      46

 USING EXTINCTION WATER CONTENT FROM PREVIOUS STRESS PERIOD. CURRENT PERIOD IS:      46

 USING AIR ENTRY PRESSURE FROM PREVIOUS STRESS PERIOD. CURRENT PERIOD IS:      46

 USING ROOT PRESSURE HEAD FROM PREVIOUS STRESS PERIOD. CURRENT PERIOD IS:      46

 USING ROOT ACTIVITY FROM PREVIOUS STRESS PERIOD. CURRENT PERIOD IS:      46
 
 SOLVING FOR HEAD 
                                                   Max.-Head-Change                         Max.-Flux-Residual
  Residual-Control   Outer-Iter.   Inner-Iter.     Column Row Layer    Maximum-Head-Change  Column Row Layer    Maximum-Flux-Residual          L2-NORM 
          0                 1           2             2    1     1       0.1712476561E-02       2    1    1         0.8893187446E-01      0.1389679604E+00
          0                 2           2             2    1     1      -0.1665773875E-03       2    1    1        -0.8893195115E-02      0.1389680168E-01
          0                 3           1             2    1     1       0.1134330260E-04       2    1    1         0.6225238465E-03      0.9727762636E-03

    ------------------------------------------------
       NWT REQUIRED            3 OUTER ITERATIONS 
       AND A TOTAL OF          5 INNER ITERATIONS.
    ------------------------------------------------

 NO OUTPUT CONTROL FOR STRESS PERIOD   46   TIME STEP    1
 
 SOLVING FOR HEAD 
                                                   Max.-Head-Change                         Max.-Flux-Residual
  Residual-Control   Outer-Iter.   Inner-Iter.     Column Row Layer    Maximum-Head-Change  Column Row Layer    Maximum-Flux-Residual          L2-NORM 
          0                 1           2             2    1     1       0.1710057830E-02       2    1    1         0.8880567349E-01      0.1385597623E+00
          0                 2           2             2    1     1      -0.1663421104E-03       2    1    1        -0.8880574974E-02      0.1385598189E-01
          0                 3           1             2    1     1       0.1132728100E-04       2    1    1         0.6216404433E-03      0.9699194965E-03

    ------------------------------------------------
       NWT REQUIRED            3 OUTER ITERATIONS 
       AND A TOTAL OF          5 INNER ITERATIONS.
    ------------------------------------------------

 NO OUTPUT CONTROL FOR STRESS PERIOD   46   TIME STEP    2
 
 SOLVING FOR HEAD 
                                                   Max.-Head-Change                         Max.-Flux-Residual
  Residual-Control   Outer-Iter.   Inner-Iter.     Column Row Layer    Maximum-Head-Change  Column Row Layer    Maximum-Flux-Residual          L2-NORM 
          0                 1           2             2    1     1       0.1705670865E-02       2    1    1         0.8867911005E-01      0.1553789217E+00
          0                 2           2             2    1     1      -0.1659154308E-03       2    1    1        -0.8867922049E-02      0.1553790065E-01
          0                 3           1             2    1     1       0.1129822297E-04       2    1    1         0.6207547194E-03      0.1087652628E-02

    ------------------------------------------------
       NWT REQUIRED            3 OUTER ITERATIONS 
       AND A TOTAL OF          5 INNER ITERATIONS.
    ------------------------------------------------

 NO OUTPUT CONTROL FOR STRESS PERIOD   46   TIME STEP    3
 
 SOLVING FOR HEAD 
                                                   Max.-Head-Change                         Max.-Flux-Residual
  Residual-Control   Outer-Iter.   Inner-Iter.     Column Row Layer    Maximum-Head-Change  Column Row Layer    Maximum-Flux-Residual          L2-NORM 
          0                 1           2             2    1     1       0.1700613358E-02       2    1    1         0.8845277287E-01      0.1719078892E+00
          0                 2           2             2    1     1      -0.1654234854E-03       2    1    1        -0.8845289131E-02      0.1719150732E-01
          0                 3           1             2    1     1       0.1126472258E-04       2    1    1         0.6191703942E-03      0.1203404526E-02

    ------------------------------------------------
       NWT REQUIRED            3 OUTER ITERATIONS 
       AND A TOTAL OF          5 INNER ITERATIONS.
    ------------------------------------------------

 NO OUTPUT CONTROL FOR STRESS PERIOD   46   TIME STEP    4
 
 SOLVING FOR HEAD 
                                                   Max.-Head-Change                         Max.-Flux-Residual
  Residual-Control   Outer-Iter.   Inner-Iter.     Column Row Layer    Maximum-Head-Change  Column Row Layer    Maximum-Flux-Residual          L2-NORM 
          0                 1           2             2    1     1       0.1695590889E-02       2    1    1         0.8819053446E-01      0.1696436249E+00
          0                 2           2             2    1     1      -0.1649349346E-03       2    1    1        -0.8819065186E-02      0.1696437042E-01
          0                 3           1             2    1     1       0.1123145436E-04       2    1    1         0.6173347248E-03      0.1187505793E-02

    ------------------------------------------------
       NWT REQUIRED            3 OUTER ITERATIONS 
       AND A TOTAL OF          5 INNER ITERATIONS.
    ------------------------------------------------

 NO OUTPUT CONTROL FOR STRESS PERIOD   46   TIME STEP    5
 
 SOLVING FOR HEAD 
                                                   Max.-Head-Change                         Max.-Flux-Residual
  Residual-Control   Outer-Iter.   Inner-Iter.     Column Row Layer    Maximum-Head-Change  Column Row Layer    Maximum-Flux-Residual          L2-NORM 
          0                 1           2             2    1     1       0.1690581056E-02       2    1    1         0.8792896923E-01      0.1674696757E+00
          0                 2           2             2    1     1      -0.1644476126E-03       2    1    1        -0.8792908546E-02      0.1674697476E-01
          0                 3           1             2    1     1       0.1119826946E-04       2    1    1         0.6155037510E-03      0.1172287454E-02

    ------------------------------------------------
       NWT REQUIRED            3 OUTER ITERATIONS 
       AND A TOTAL OF          5 INNER ITERATIONS.
    ------------------------------------------------

 NO OUTPUT CONTROL FOR STRESS PERIOD   46   TIME STEP    6
 
 SOLVING FOR HEAD 
                                                   Max.-Head-Change                         Max.-Flux-Residual
  Residual-Control   Outer-Iter.   Inner-Iter.     Column Row Layer    Maximum-Head-Change  Column Row Layer    Maximum-Flux-Residual          L2-NORM 
          0                 1           2             2    1     1       0.1685627961E-02       2    1    1         0.8767036927E-01      0.1653669027E+00
          0                 2           2             2    1     1      -0.1639658102E-03       2    1    1        -0.8767048449E-02      0.1653669894E-01
          0                 3           1             2    1     1       0.1116546062E-04       2    1    1         0.6136935507E-03      0.1157582622E-02

    ------------------------------------------------
       NWT REQUIRED            3 OUTER ITERATIONS 
       AND A TOTAL OF          5 INNER ITERATIONS.
    ------------------------------------------------

 NO OUTPUT CONTROL FOR STRESS PERIOD   46   TIME STEP    7
 
 SOLVING FOR HEAD 
                                                   Max.-Head-Change                         Max.-Flux-Residual
  Residual-Control   Outer-Iter.   Inner-Iter.     Column Row Layer    Maximum-Head-Change  Column Row Layer    Maximum-Flux-Residual          L2-NORM 
          0                 1           2             2    1     1       0.1680708904E-02       2    1    1         0.8741355604E-01      0.1633434723E+00
          0                 2           2             2    1     1      -0.1634873184E-03       2    1    1        -0.8741367027E-02      0.1633435746E-01
          0                 3           1             2    1     1       0.1113287734E-04       2    1    1         0.6118958567E-03      0.1143407323E-02

    ------------------------------------------------
       NWT REQUIRED            3 OUTER ITERATIONS 
       AND A TOTAL OF          5 INNER ITERATIONS.
    ------------------------------------------------

 NO OUTPUT CONTROL FOR STRESS PERIOD   46   TIME STEP    8
 
 SOLVING FOR HEAD 
                                                   Max.-Head-Change                         Max.-Flux-Residual
  Residual-Control   Outer-Iter.   Inner-Iter.     Column Row Layer    Maximum-Head-Change  Column Row Layer    Maximum-Flux-Residual          L2-NORM 
          0                 1           2             2    1     1       0.1675801410E-02       2    1    1         0.8715735247E-01      0.1613857546E+00
          0                 2           2             2    1     1      -0.1630099514E-03       2    1    1        -0.8715746561E-02      0.1613858423E-01
          0                 3           1             2    1     1       0.1110037027E-04       2    1    1         0.6101024196E-03      0.1129701675E-02

    ------------------------------------------------
       NWT REQUIRED            3 OUTER ITERATIONS 
       AND A TOTAL OF          5 INNER ITERATIONS.
    ------------------------------------------------

 NO OUTPUT CONTROL FOR STRESS PERIOD   46   TIME STEP    9
 
 SOLVING FOR HEAD 
                                                   Max.-Head-Change                         Max.-Flux-Residual
  Residual-Control   Outer-Iter.   Inner-Iter.     Column Row Layer    Maximum-Head-Change  Column Row Layer    Maximum-Flux-Residual          L2-NORM 
          0                 1           2             2    1     1       0.1670949497E-02       2    1    1         0.8690405879E-01      0.1594959638E+00
          0                 2           2             2    1     1      -0.1625379910E-03       2    1    1        -0.8690417101E-02      0.1594960511E-01
          0                 3           1             2    1     1       0.1106823122E-04       2    1    1         0.6083293400E-03      0.1116472582E-02

    ------------------------------------------------
       NWT REQUIRED            3 OUTER ITERATIONS 
       AND A TOTAL OF          5 INNER ITERATIONS.
    ------------------------------------------------

 NO OUTPUT CONTROL FOR STRESS PERIOD   46   TIME STEP   10
 
 SOLVING FOR HEAD 
                                                   Max.-Head-Change                         Max.-Flux-Residual
  Residual-Control   Outer-Iter.   Inner-Iter.     Column Row Layer    Maximum-Head-Change  Column Row Layer    Maximum-Flux-Residual          L2-NORM 
          0                 1           2             2    1     1       0.1666108390E-02       2    1    1         0.8665133651E-01      0.1576691618E+00
          0                 2           2             2    1     1      -0.1620670819E-03       2    1    1        -0.8665144780E-02      0.1576692395E-01
          0                 3           1             2    1     1       0.1103616436E-04       2    1    1         0.6065602813E-03      0.1103685520E-02

    ------------------------------------------------
       NWT REQUIRED            3 OUTER ITERATIONS 
       AND A TOTAL OF          5 INNER ITERATIONS.
    ------------------------------------------------

 NO OUTPUT CONTROL FOR STRESS PERIOD   46   TIME STEP   11
 
 SOLVING FOR HEAD 
                                                   Max.-Head-Change                         Max.-Flux-Residual
  Residual-Control   Outer-Iter.   Inner-Iter.     Column Row Layer    Maximum-Head-Change  Column Row Layer    Maximum-Flux-Residual          L2-NORM 
          0                 1           2             2    1     1       0.1661322225E-02       2    1    1         0.8640148504E-01      0.1558990138E+00
          0                 2           2             2    1     1      -0.1616015173E-03       2    1    1        -0.8640159532E-02      0.1558991018E-01
          0                 3           1             2    1     1       0.1100446150E-04       2    1    1         0.6048113416E-03      0.1091293792E-02

    ------------------------------------------------
       NWT REQUIRED            3 OUTER ITERATIONS 
       AND A TOTAL OF          5 INNER ITERATIONS.
    ------------------------------------------------

 NO OUTPUT CONTROL FOR STRESS PERIOD   46   TIME STEP   12
 
 SOLVING FOR HEAD 
                                                   Max.-Head-Change                         Max.-Flux-Residual
  Residual-Control   Outer-Iter.   Inner-Iter.     Column Row Layer    Maximum-Head-Change  Column Row Layer    Maximum-Flux-Residual          L2-NORM 
          0                 1           2             2    1     1       0.1656546098E-02       2    1    1         0.8615217159E-01      0.1541855688E+00
          0                 2           2             2    1     1      -0.1611369284E-03       2    1    1        -0.8615228079E-02      0.1541858571E-01
          0                 3           1             2    1     1       0.1097282444E-04       2    1    1         0.6030661163E-03      0.1079626065E-02

    ------------------------------------------------
       NWT REQUIRED            3 OUTER ITERATIONS 
       AND A TOTAL OF          5 INNER ITERATIONS.
    ------------------------------------------------

 NO OUTPUT CONTROL FOR STRESS PERIOD   46   TIME STEP   13
 
 SOLVING FOR HEAD 
                                                   Max.-Head-Change                         Max.-Flux-Residual
  Residual-Control   Outer-Iter.   Inner-Iter.     Column Row Layer    Maximum-Head-Change  Column Row Layer    Maximum-Flux-Residual          L2-NORM 
          0                 1           2             2    1     1       0.1651801963E-02       2    1    1         0.8590453397E-01      0.1525306081E+00
          0                 2           2             2    1     1      -0.1606754518E-03       2    1    1        -0.8590464210E-02      0.1525306951E-01
          0                 3           1             2    1     1       0.1094139967E-04       2    1    1         0.6013326376E-03      0.1067715722E-02

    ------------------------------------------------
       NWT REQUIRED            3 OUTER ITERATIONS 
       AND A TOTAL OF          5 INNER ITERATIONS.
    ------------------------------------------------

 NO OUTPUT CONTROL FOR STRESS PERIOD   46   TIME STEP   14
 
 SOLVING FOR HEAD 
                                                   Max.-Head-Change                         Max.-Flux-Residual
  Residual-Control   Outer-Iter.   Inner-Iter.     Column Row Layer    Maximum-Head-Change  Column Row Layer    Maximum-Flux-Residual          L2-NORM 
          0                 1           2             2    1     1       0.1647111697E-02       2    1    1         0.8565971061E-01      0.1509178422E+00
          0                 2           2             2    1     1      -0.1602192158E-03       2    1    1        -0.8565981799E-02      0.1509179315E-01
          0                 3           1             2    1     1       0.1091033181E-04       2    1    1         0.5996188773E-03      0.1056426192E-02

    ------------------------------------------------
       NWT REQUIRED            3 OUTER ITERATIONS 
       AND A TOTAL OF          5 INNER ITERATIONS.
    ------------------------------------------------

 NO OUTPUT CONTROL FOR STRESS PERIOD   46   TIME STEP   15
 
 SOLVING FOR HEAD 
                                                   Max.-Head-Change                         Max.-Flux-Residual
  Residual-Control   Outer-Iter.   Inner-Iter.     Column Row Layer    Maximum-Head-Change  Column Row Layer    Maximum-Flux-Residual          L2-NORM 
          0                 1           2             2    1     1       0.1642430435E-02       2    1    1         0.8541536926E-01      0.1493591400E+00
          0                 2           2             2    1     1      -0.1597638553E-03       2    1    1        -0.8541547571E-02      0.1493593376E-01
          0                 3           1             2    1     1       0.1087932335E-04       2    1    1         0.5979084826E-03      0.1045582414E-02

    ------------------------------------------------
       NWT REQUIRED            3 OUTER ITERATIONS 
       AND A TOTAL OF          5 INNER ITERATIONS.
    ------------------------------------------------

 NO OUTPUT CONTROL FOR STRESS PERIOD   46   TIME STEP   16
 
 SOLVING FOR HEAD 
                                                   Max.-Head-Change                         Max.-Flux-Residual
  Residual-Control   Outer-Iter.   Inner-Iter.     Column Row Layer    Maximum-Head-Change  Column Row Layer    Maximum-Flux-Residual          L2-NORM 
          0                 1           2             2    1     1       0.1637780221E-02       2    1    1         0.8517265025E-01      0.1478404526E+00
          0                 2           2             2    1     1      -0.1593115148E-03       2    1    1        -0.8517275578E-02      0.1478405397E-01
          0                 3           1             2    1     1       0.1084852103E-04       2    1    1         0.5962094469E-03      0.1034884160E-02

    ------------------------------------------------
       NWT REQUIRED            3 OUTER ITERATIONS 
       AND A TOTAL OF          5 INNER ITERATIONS.
    ------------------------------------------------

 NO OUTPUT CONTROL FOR STRESS PERIOD   46   TIME STEP   17
 
 SOLVING FOR HEAD 
                                                   Max.-Head-Change                         Max.-Flux-Residual
  Residual-Control   Outer-Iter.   Inner-Iter.     Column Row Layer    Maximum-Head-Change  Column Row Layer    Maximum-Flux-Residual          L2-NORM 
          0                 1           2             2    1     1       0.1633160613E-02       2    1    1         0.8493154107E-01      0.1463659279E+00
          0                 2           2             2    1     1      -0.1588621514E-03       2    1    1        -0.8493164560E-02      0.1463660112E-01
          0                 3           1             2    1     1       0.1081792084E-04       2    1    1         0.5945216796E-03      0.1024564764E-02

    ------------------------------------------------
       NWT REQUIRED            3 OUTER ITERATIONS 
       AND A TOTAL OF          5 INNER ITERATIONS.
    ------------------------------------------------

 NO OUTPUT CONTROL FOR STRESS PERIOD   46   TIME STEP   18
 
 SOLVING FOR HEAD 
                                                   Max.-Head-Change                         Max.-Flux-Residual
  Residual-Control   Outer-Iter.   Inner-Iter.     Column Row Layer    Maximum-Head-Change  Column Row Layer    Maximum-Flux-Residual          L2-NORM 
          0                 1           2             2    1     1       0.1628571380E-02       2    1    1         0.8469201880E-01      0.1449361560E+00
          0                 2           2             2    1     1      -0.1584157427E-03       2    1    1        -0.8469212249E-02      0.1449362419E-01
          0                 3           1             2    1     1       0.1078752228E-04       2    1    1         0.5928450085E-03      0.1014554075E-02

    ------------------------------------------------
       NWT REQUIRED            3 OUTER ITERATIONS 
       AND A TOTAL OF          5 INNER ITERATIONS.
    ------------------------------------------------

 NO OUTPUT CONTROL FOR STRESS PERIOD   46   TIME STEP   19
 
 SOLVING FOR HEAD 
                                                   Max.-Head-Change                         Max.-Flux-Residual
  Residual-Control   Outer-Iter.   Inner-Iter.     Column Row Layer    Maximum-Head-Change  Column Row Layer    Maximum-Flux-Residual          L2-NORM 
          0                 1           2             2    1     1       0.1624034323E-02       2    1    1         0.8445522718E-01      0.1435483590E+00
          0                 2           2             2    1     1      -0.1579744099E-03       2    1    1        -0.8445532999E-02      0.1435496550E-01
          0                 3           1             2    1     1       0.1075746928E-04       2    1    1         0.5911874769E-03      0.1004847757E-02

    ------------------------------------------------
       NWT REQUIRED            3 OUTER ITERATIONS 
       AND A TOTAL OF          5 INNER ITERATIONS.
    ------------------------------------------------

 NO OUTPUT CONTROL FOR STRESS PERIOD   46   TIME STEP   20
 
 SOLVING FOR HEAD 
                                                   Max.-Head-Change                         Max.-Flux-Residual
  Residual-Control   Outer-Iter.   Inner-Iter.     Column Row Layer    Maximum-Head-Change  Column Row Layer    Maximum-Flux-Residual          L2-NORM 
          0                 1           2             2    1     1       0.1619504696E-02       2    1    1         0.8421882935E-01      0.1421962706E+00
          0                 2           2             2    1     1      -0.1575337988E-03       2    1    1        -0.8421893122E-02      0.1421963791E-01
          0                 3           1             2    1     1       0.1072746526E-04       2    1    1         0.5895326604E-03      0.9953805737E-03

    ------------------------------------------------
       NWT REQUIRED            3 OUTER ITERATIONS 
       AND A TOTAL OF          5 INNER ITERATIONS.
    ------------------------------------------------

 NO OUTPUT CONTROL FOR STRESS PERIOD   46   TIME STEP   21
 
 SOLVING FOR HEAD 
                                                   Max.-Head-Change                         Max.-Flux-Residual
  Residual-Control   Outer-Iter.   Inner-Iter.     Column Row Layer    Maximum-Head-Change  Column Row Layer    Maximum-Flux-Residual          L2-NORM 
          0                 1           2             2    1     1       0.1615004469E-02       2    1    1         0.8398397250E-01      0.1408834401E+00
          0                 2           2             2    1     1      -0.1570960486E-03       2    1    1        -0.8398407366E-02      0.1408835252E-01
          0                 3           1             2    1     1       0.1069765626E-04       2    1    1         0.5878886791E-03      0.9861846770E-03

    ------------------------------------------------
       NWT REQUIRED            3 OUTER ITERATIONS 
       AND A TOTAL OF          5 INNER ITERATIONS.
    ------------------------------------------------

 NO OUTPUT CONTROL FOR STRESS PERIOD   46   TIME STEP   22
 
 SOLVING FOR HEAD 
                                                   Max.-Head-Change                         Max.-Flux-Residual
  Residual-Control   Outer-Iter.   Inner-Iter.     Column Row Layer    Maximum-Head-Change  Column Row Layer    Maximum-Flux-Residual          L2-NORM 
          0                 1           2             2    1     1       0.1610533296E-02       2    1    1         0.8375064002E-01      0.1395985151E+00
          0                 2           2             2    1     1      -0.1566611238E-03       2    1    1        -0.8375074026E-02      0.1395986026E-01
          0                 3           1             2    1     1       0.1066803920E-04       2    1    1         0.5862553315E-03      0.9771912959E-03

    ------------------------------------------------
       NWT REQUIRED            3 OUTER ITERATIONS 
       AND A TOTAL OF          5 INNER ITERATIONS.
    ------------------------------------------------

 NO OUTPUT CONTROL FOR STRESS PERIOD   46   TIME STEP   23
 
 SOLVING FOR HEAD 
                                                   Max.-Head-Change                         Max.-Flux-Residual
  Residual-Control   Outer-Iter.   Inner-Iter.     Column Row Layer    Maximum-Head-Change  Column Row Layer    Maximum-Flux-Residual          L2-NORM 
          0                 1           2             2    1     1       0.1606090894E-02       2    1    1         0.8351881392E-01      0.1383552269E+00
          0                 2           2             2    1     1      -0.1562289982E-03       2    1    1        -0.8351891327E-02      0.1383553094E-01
          0                 3           1             2    1     1       0.1063861338E-04       2    1    1         0.5846325540E-03      0.9684873105E-03

    ------------------------------------------------
       NWT REQUIRED            3 OUTER ITERATIONS 
       AND A TOTAL OF          5 INNER ITERATIONS.
    ------------------------------------------------

 NO OUTPUT CONTROL FOR STRESS PERIOD   46   TIME STEP   24
 
 SOLVING FOR HEAD 
                                                   Max.-Head-Change                         Max.-Flux-Residual
  Residual-Control   Outer-Iter.   Inner-Iter.     Column Row Layer    Maximum-Head-Change  Column Row Layer    Maximum-Flux-Residual          L2-NORM 
          0                 1           2             2    1     1       0.1601676958E-02       2    1    1         0.8328847962E-01      0.1371440147E+00
          0                 2           2             2    1     1      -0.1557996412E-03       2    1    1        -0.8328857819E-02      0.1371440968E-01
          0                 3           1             2    1     1       0.1060937595E-04       2    1    1         0.5830202123E-03      0.9600139765E-03

    ------------------------------------------------
       NWT REQUIRED            3 OUTER ITERATIONS 
       AND A TOTAL OF          5 INNER ITERATIONS.
    ------------------------------------------------

 NO OUTPUT CONTROL FOR STRESS PERIOD   46   TIME STEP   25
 
 SOLVING FOR HEAD 
                                                   Max.-Head-Change                         Max.-Flux-Residual
  Residual-Control   Outer-Iter.   Inner-Iter.     Column Row Layer    Maximum-Head-Change  Column Row Layer    Maximum-Flux-Residual          L2-NORM 
          0                 1           2             2    1     1       0.1597291214E-02       2    1    1         0.8305962122E-01      0.1359628019E+00
          0                 2           2             2    1     1      -0.1553730264E-03       2    1    1        -0.8305971878E-02      0.1359628911E-01
          0                 3           1             2    1     1       0.1058032525E-04       2    1    1         0.5814181953E-03      0.9517403525E-03

    ------------------------------------------------
       NWT REQUIRED            3 OUTER ITERATIONS 
       AND A TOTAL OF          5 INNER ITERATIONS.
    ------------------------------------------------

 NO OUTPUT CONTROL FOR STRESS PERIOD   46   TIME STEP   26
 
 SOLVING FOR HEAD 
                                                   Max.-Head-Change                         Max.-Flux-Residual
  Residual-Control   Outer-Iter.   Inner-Iter.     Column Row Layer    Maximum-Head-Change  Column Row Layer    Maximum-Flux-Residual          L2-NORM 
          0                 1           2             2    1     1       0.1592933437E-02       2    1    1         0.8283222459E-01      0.1348103941E+00
          0                 2           2             2    1     1      -0.1549491326E-03       2    1    1        -0.8283232158E-02      0.1348104825E-01
          0                 3           1             2    1     1       0.1055145963E-04       2    1    1         0.5798264030E-03      0.9436735704E-03

    ------------------------------------------------
       NWT REQUIRED            3 OUTER ITERATIONS 
       AND A TOTAL OF          5 INNER ITERATIONS.
    ------------------------------------------------

 NO OUTPUT CONTROL FOR STRESS PERIOD   46   TIME STEP   27
 
 SOLVING FOR HEAD 
                                                   Max.-Head-Change                         Max.-Flux-Residual
  Residual-Control   Outer-Iter.   Inner-Iter.     Column Row Layer    Maximum-Head-Change  Column Row Layer    Maximum-Flux-Residual          L2-NORM 
          0                 1           2             2    1     1       0.1588580987E-02       2    1    1         0.8260512184E-01      0.1336919036E+00
          0                 2           2             2    1     1      -0.1545257564E-03       2    1    1        -0.8260521787E-02      0.1336919893E-01
          0                 3           1             2    1     1       0.1052262904E-04       2    1    1         0.5782366807E-03      0.9358442676E-03

    ------------------------------------------------
       NWT REQUIRED            3 OUTER ITERATIONS 
       AND A TOTAL OF          5 INNER ITERATIONS.
    ------------------------------------------------

 NO OUTPUT CONTROL FOR STRESS PERIOD   46   TIME STEP   28
 
 SOLVING FOR HEAD 
                                                   Max.-Head-Change                         Max.-Flux-Residual
  Residual-Control   Outer-Iter.   Inner-Iter.     Column Row Layer    Maximum-Head-Change  Column Row Layer    Maximum-Flux-Residual          L2-NORM 
          0                 1           2             2    1     1       0.1584278216E-02       2    1    1         0.8238060760E-01      0.1325894235E+00
          0                 2           2             2    1     1      -0.1541072132E-03       2    1    1        -0.8238070292E-02      0.1325895108E-01
          0                 3           1             2    1     1       0.1049412837E-04       2    1    1         0.5766650902E-03      0.9281281372E-03

    ------------------------------------------------
       NWT REQUIRED            3 OUTER ITERATIONS 
       AND A TOTAL OF          5 INNER ITERATIONS.
    ------------------------------------------------

 NO OUTPUT CONTROL FOR STRESS PERIOD   46   TIME STEP   29
 
 SOLVING FOR HEAD 
                                                   Max.-Head-Change                         Max.-Flux-Residual
  Residual-Control   Outer-Iter.   Inner-Iter.     Column Row Layer    Maximum-Head-Change  Column Row Layer    Maximum-Flux-Residual          L2-NORM 
          0                 1           2             2    1     1       0.1580002437E-02       2    1    1         0.8215751302E-01      0.1315289804E+00
          0                 2           2             2    1     1      -0.1536912951E-03       2    1    1        -0.8215760761E-02      0.1315290616E-01
          0                 3           1             2    1     1       0.1046580521E-04       2    1    1         0.5751033987E-03      0.9207034809E-03

    ------------------------------------------------
       NWT REQUIRED            3 OUTER ITERATIONS 
       AND A TOTAL OF          5 INNER ITERATIONS.
    ------------------------------------------------

 NO OUTPUT CONTROL FOR STRESS PERIOD   46   TIME STEP   30



 STREAM LISTING     PERIOD     46   STEP       30

 LAYER ROW COL. STREAM  RCH.  FLOW INTO     FLOW TO   FLOW OUT OF   OVRLND.     DIRECT     STREAM       STREAM     STREAM     STREAM   STREAMBED  STREAMBED
                SEG.NO.  NO.  STRM. RCH.    AQUIFER    STRM. RCH.    RUNOFF     PRECIP       ET          HEAD       DEPTH      WIDTH   CONDCTNC.   GRADIENT

   1    1    1     1     1    1.8749E+01  2.1264E-01   1.8537E+01  0.000E+00  0.000E+00  0.000E+00  1.09413E+03  1.078E+00  1.159E+01  5.215E-02  1.359E+00
   1    2    2     1     2    1.8537E+01  3.2801E-01   1.8209E+01  0.000E+00  0.000E+00  0.000E+00  1.08913E+03  1.073E+00  1.150E+01  8.053E-02  1.358E+00
   1    3    3     1     3    1.8209E+01  2.7848E-01   1.7930E+01  0.000E+00  0.000E+00  0.000E+00  1.08349E+03  1.068E+00  1.141E+01  6.845E-02  1.356E+00
   1    3    4     1     4    1.7930E+01  2.5541E-01   1.7675E+01  0.000E+00  0.000E+00  0.000E+00  1.07847E+03  1.064E+00  1.132E+01  6.285E-02  1.355E+00
   1    4    5     2     1    1.5675E+01  3.0476E-01   1.5370E+01  0.000E+00  0.000E+00  0.000E+00  1.07284E+03  9.072E-01  1.200E+01  7.800E-02  1.302E+00
   1    5    6     2     2    1.5370E+01  2.3387E-01   1.5136E+01  0.000E+00  0.000E+00  0.000E+00  1.06741E+03  8.978E-01  1.200E+01  6.000E-02  1.299E+00
   1    6    6     2     3    1.5136E+01  2.3337E-01   1.4903E+01  0.000E+00  0.000E+00  0.000E+00  1.06268E+03  8.895E-01  1.200E+01  6.000E-02  1.296E+00
   1    7    6     2     4    1.4903E+01  2.3287E-01   1.4670E+01  0.000E+00  0.000E+00  0.000E+00  1.05796E+03  8.812E-01  1.200E+01  6.000E-02  1.294E+00
   1    8    6     2     5    1.4670E+01  2.3237E-01   1.4438E+01  0.000E+00  0.000E+00  0.000E+00  1.05323E+03  8.728E-01  1.200E+01  6.000E-02  1.291E+00
   1    3    5     3     1    2.0000E+00  2.8252E-01   1.7175E+00  0.000E+00  0.000E+00  0.000E+00  1.07555E+03  1.909E+00  9.636E+00  7.227E-02  1.955E+00
   1    3    6     3     2    1.7175E+00  2.4905E-01   1.4684E+00  0.000E+00  0.000E+00  0.000E+00  1.07264E+03  1.727E+00  8.909E+00  6.682E-02  1.864E+00
   1    3    7     3     3    1.4684E+00  1.9718E-01   1.2712E+00  0.000E+00  0.000E+00  0.000E+00  1.06987E+03  1.555E+00  8.218E+00  5.547E-02  1.777E+00
   1    4    8     3     4    1.2712E+00  2.2567E-01   1.0456E+00  0.000E+00  0.000E+00  0.000E+00  1.06682E+03  1.364E+00  7.455E+00  6.709E-02  1.682E+00
   1    5    8     3     5    1.0456E+00  1.5790E-01   8.8768E-01  0.000E+00  0.000E+00  0.000E+00  1.06362E+03  1.164E+00  6.655E+00  4.991E-02  1.582E+00
   1    6    8     3     6    8.8768E-01  5.5980E-02   8.3170E-01  0.000E+00  0.000E+00  0.000E+00  1.06158E+03  1.036E+00  6.145E+00  1.844E-02  1.518E+00
   1    5   10     4     1    1.0000E+01  9.0919E-02   9.9091E+00  0.000E+00  0.000E+00  0.000E+00  1.07836E+03  6.368E-01  1.000E+01  2.500E-02  1.212E+00
   1    5    9     4     2    9.9091E+00  1.8158E-01   9.7275E+00  0.000E+00  0.000E+00  0.000E+00  1.07154E+03  6.315E-01  1.000E+01  5.000E-02  1.211E+00
   1    6    8     4     3    9.7275E+00  1.2689E-01   9.6006E+00  0.000E+00  0.000E+00  0.000E+00  1.06381E+03  6.256E-01  1.000E+01  3.500E-02  1.209E+00
   1    6    8     5     1    1.0432E+01  2.2686E-01   1.0205E+01  0.000E+00  0.000E+00  0.000E+00  1.05868E+03  6.790E-01  1.542E+01  6.166E-02  1.226E+00
   1    7    7     5     2    1.0205E+01  2.7894E-01   9.9265E+00  0.000E+00  0.000E+00  0.000E+00  1.05417E+03  6.732E-01  1.519E+01  7.594E-02  1.224E+00
   1    8    7     5     3    9.9265E+00  1.9221E-01   9.7343E+00  0.000E+00  0.000E+00  0.000E+00  1.04992E+03  6.676E-01  1.497E+01  5.241E-02  1.223E+00
   1    8    6     5     4    9.7343E+00  1.3577E-01   9.5985E+00  0.000E+00  0.000E+00  0.000E+00  1.04691E+03  6.637E-01  1.482E+01  3.706E-02  1.221E+00
   1    9    6     6     1    9.5985E+00  2.2097E-01   9.3776E+00  0.000E+00  0.000E+00  0.000E+00  1.04341E+03  6.828E-01  1.200E+01  6.000E-02  1.228E+00
   1   10    7     6     2    9.3776E+00  2.2039E-01   9.1572E+00  0.000E+00  0.000E+00  0.000E+00  1.03885E+03  6.732E-01  1.200E+01  6.000E-02  1.224E+00
   1   11    7     6     3    9.1572E+00  2.1981E-01   8.9374E+00  0.000E+00  0.000E+00  0.000E+00  1.03430E+03  6.636E-01  1.200E+01  6.000E-02  1.221E+00
   1   12    7     6     4    8.9374E+00  2.1923E-01   8.7181E+00  0.000E+00  0.000E+00  0.000E+00  1.02974E+03  6.539E-01  1.200E+01  6.000E-02  1.218E+00
   1   13    7     6     5    8.7181E+00 -1.1045E-01   8.8286E+00  0.000E+00  0.000E+00  0.000E+00  1.02656E+03  6.514E-01  1.200E+01  2.400E-01 -1.534E-01
   1   14    9     7     1    1.5000E+02  1.3459E+00   1.4865E+02  0.000E+00  0.000E+00  0.000E+00  1.03987E+03  2.288E+00  5.529E+01  5.593E-01  8.021E-01
   1   13    8     7     2    1.4865E+02  1.8508E+00   1.4680E+02  0.000E+00  0.000E+00  0.000E+00  1.03478E+03  2.279E+00  5.526E+01  6.148E-01  1.003E+00
   1   13    7     7     3    1.4680E+02  1.4904E+00   1.4531E+02  0.000E+00  0.000E+00  0.000E+00  1.02969E+03  2.270E+00  5.522E+01  5.584E-01  8.896E-01
   1   13    6     8     1    1.5414E+02  8.4264E-01   1.5330E+02  0.000E+00  0.000E+00  0.000E+00  1.02472E+03  2.843E+00  4.122E+01  4.201E-01  6.687E-01
   1   13    5     8     2    1.5330E+02  1.1227E-01   1.5319E+02  0.000E+00  0.000E+00  0.000E+00  1.01846E+03  2.840E+00  4.117E+01  4.196E-01  8.919E-02
   1   13    4     8     3    1.5319E+02 -2.6398E+00   1.5583E+02  0.000E+00  0.000E+00  0.000E+00  1.01222E+03  2.848E+00  4.130E+01  4.209E+00 -2.091E-01
   1   13    3     8     4    1.5583E+02 -3.7260E+00   1.5955E+02  0.000E+00  0.000E+00  0.000E+00  1.00600E+03  2.870E+00  4.162E+01  4.241E+00 -2.929E-01
   1   13    2     8     5    1.5955E+02 -2.5920E+00   1.6214E+02  0.000E+00  0.000E+00  0.000E+00  9.99767E+02  2.892E+00  4.193E+01  4.273E+00 -2.022E-01
   1   13    1     8     6    1.6214E+02 -1.9791E+00   1.6412E+02  0.000E+00  0.000E+00  0.000E+00  9.94782E+02  2.907E+00  4.215E+01  2.577E+00 -2.560E-01
   1    8    6     9     1    1.4438E+01  0.0000E+00   1.4438E+01  0.000E+00  0.000E+00  0.000E+00  1.08157E+03  2.825E+00  4.000E+00  0.000E+00  1.942E+00
   1    8    5     9     2    1.4438E+01  0.0000E+00   1.4438E+01  0.000E+00  0.000E+00  0.000E+00  1.08107E+03  2.825E+00  4.000E+00  0.000E+00  1.942E+00





UNSATURATED ZONE PACKAGE VOLUMETRIC BUDGET FOR  TIME STEP    30 STRESS PERIOD   46
  ------------------------------------------------------------------------------



     CUMULATIVE VOLUMES      L**3       RATES FOR THIS TIME STEP      L**3/T
     ------------------                 ------------------------

           IN:                                      IN:
           ---                                      ---
        INFILTRATION =   100374843.2734          INFILTRATION =           0.8475

          OUT:                                     OUT:
          ----                                     ----
              UZF ET =    99549828.0560                UZF ET =           0.8475
        UZF RECHARGE =       73224.0000          UZF RECHARGE =       0.0000E+00

            IN - OUT =      751791.2173              IN - OUT =       0.0000E+00

          STORAGE:                                 STORAGE:
          --------                                 --------
      STORAGE CHANGE =      751791.5911        STORAGE CHANGE =       1.6599E-16

 PERCENT DISCREPANCY IS DIFFERENCE BETWEEN IN-OUT MINUS CHANGE IN STORAGE
 DIVIDED BY THE AVERAGE OF IN AND OUT TIMES 100

 PERCENT DISCREPANCY =           0.00     PERCENT DISCREPANCY =           0.00






1
  VOLUMETRIC BUDGET FOR ENTIRE MODEL AT END OF TIME STEP   30, STRESS PERIOD  46
  ------------------------------------------------------------------------------

     CUMULATIVE VOLUMES      L**3       RATES FOR THIS TIME STEP      L**3/T
     ------------------                 ------------------------

           IN:                                      IN:
           ---                                      ---
             STORAGE     =    32693116.0000               STORAGE     =           0.2177
       CONSTANT HEAD     =           0.0000         CONSTANT HEAD     =           0.0000
     HEAD DEP BOUNDS     =    33896328.0000       HEAD DEP BOUNDS     =           0.2864
      STREAM LEAKAGE     =  1389623808.0000        STREAM LEAKAGE     =          11.2356
        UZF RECHARGE     =       73223.9531          UZF RECHARGE     =           0.0000
               GW ET     =           0.0000                 GW ET     =           0.0000
     SURFACE LEAKAGE     =           0.0000       SURFACE LEAKAGE     =           0.0000

                TOTAL IN =  1456286464.0000                  TOTAL IN =          11.7398

          OUT:                                     OUT:
          ----                                     ----
             STORAGE     =   111630328.0000               STORAGE     =           0.4056
       CONSTANT HEAD     =           0.0000         CONSTANT HEAD     =           0.0000
     HEAD DEP BOUNDS     =    33981436.0000       HEAD DEP BOUNDS     =           0.2869
      STREAM LEAKAGE     =  1310692736.0000        STREAM LEAKAGE     =          11.0474
        UZF RECHARGE     =           0.0000          UZF RECHARGE     =           0.0000
               GW ET     =           0.0000                 GW ET     =           0.0000
     SURFACE LEAKAGE     =           0.0000       SURFACE LEAKAGE     =           0.0000

               TOTAL OUT =  1456304512.0000                 TOTAL OUT =          11.7399

                IN - OUT =      -18048.0000                  IN - OUT =      -4.9591E-05

     PERCENT DISCREPANCY =          -0.00         PERCENT DISCREPANCY =          -0.00






         TIME SUMMARY AT END OF TIME STEP   30 IN STRESS PERIOD   46
                    SECONDS     MINUTES      HOURS       DAYS        YEARS
                    -----------------------------------------------------------
   TIME STEP LENGTH  87667.      1461.1      24.352      1.0147     2.77799E-03
 STRESS PERIOD TIME 2.63000E+06  43833.      730.56      30.440     8.33397E-02
         TOTAL TIME 1.18435E+08 1.97392E+06  32899.      1370.8      3.7530    
1
1
                            STRESS PERIOD NO.   47, LENGTH =   2630000.    
                            -----------------------------------------------

                              NUMBER OF TIME STEPS =    30

                               MULTIPLIER FOR DELT =     1.000

                            INITIAL TIME STEP SIZE =   87666.66    

 REUSING NON-PARAMETER GHB CELLS FROM LAST STRESS PERIOD

      2 GHB CELLS

 REUSING STREAM SEGMENT DATA FROM LAST STRESS PERIOD



            AREAL INFILTRATION RATE
 READING ON UNIT   19 WITH FORMAT: (FREE)              

            1           2           3           4           5           6           7           8           9          10
 ........................................................................................................................
   1   1.0000E-10  2.0000E-10   0.000       0.000       0.000       0.000       0.000       0.000       0.000       0.000    
   2   2.0000E-10  1.0000E-10  2.0000E-10   0.000       0.000      8.0000E-10  8.0000E-10  5.0000E-10   0.000       0.000    
   3    0.000      5.0000E-10  1.0000E-10  1.0000E-10  8.0000E-10  8.0000E-10  5.0000E-10  5.0000E-10   0.000       0.000    
   4   8.0000E-10  5.0000E-10  1.0000E-10  1.0000E-10  1.0000E-10  1.0000E-10  1.0000E-10  1.0000E-10  2.0000E-10   0.000    
   5   8.0000E-10  5.0000E-10  1.0000E-10  1.0000E-10  1.0000E-10  1.0000E-10  1.0000E-10  1.0000E-10  1.0000E-10  1.0000E-10
   6   8.0000E-10  5.0000E-10  5.0000E-10  2.0000E-10  2.0000E-10  1.0000E-10  1.0000E-10  1.0000E-10  1.0000E-10  5.0000E-10
   7   8.0000E-10  5.0000E-10  5.0000E-10  2.0000E-10  2.0000E-10  1.0000E-10  1.0000E-10  2.0000E-10  2.0000E-10   0.000    
   8    0.000      5.0000E-10  5.0000E-10  2.0000E-10  2.0000E-10  1.0000E-10  1.0000E-10  2.0000E-10  5.0000E-10   0.000    
   9    0.000      5.0000E-10  5.0000E-10  2.0000E-10  2.0000E-10  1.0000E-10  1.0000E-10  2.0000E-10  5.0000E-10   0.000    
  10    0.000      5.0000E-10  5.0000E-10  2.0000E-10  2.0000E-10  1.0000E-10  1.0000E-10  2.0000E-10  5.0000E-10  8.0000E-10
  11    0.000      1.0000E-10  1.0000E-10  1.0000E-10  1.0000E-10  1.0000E-10  1.0000E-10  2.0000E-10  5.0000E-10   0.000    
  12   1.0000E-10  1.0000E-10  1.0000E-10  1.0000E-10  1.0000E-10  1.0000E-10  1.0000E-10  1.0000E-10  2.0000E-10   0.000    
  13   1.0000E-10  1.0000E-10  2.0000E-10  2.0000E-10  2.0000E-10  2.0000E-10  2.0000E-10  1.0000E-10  1.0000E-10   0.000    
  14    0.000      2.0000E-10  5.0000E-10  5.0000E-10  5.0000E-10  5.0000E-10  5.0000E-10  2.0000E-10  1.0000E-10   0.000    
  15    0.000       0.000      8.0000E-10  8.0000E-10  8.0000E-10  8.0000E-10   0.000       0.000       0.000       0.000    

                  ET RATE =  5.000000E-09

 USING ET EXTINCTION DEPTH FROM PREVIOUS STRESS PERIOD. CURRENT PERIOD IS:      47

 USING EXTINCTION WATER CONTENT FROM PREVIOUS STRESS PERIOD. CURRENT PERIOD IS:      47

 USING AIR ENTRY PRESSURE FROM PREVIOUS STRESS PERIOD. CURRENT PERIOD IS:      47

 USING ROOT PRESSURE HEAD FROM PREVIOUS STRESS PERIOD. CURRENT PERIOD IS:      47

 USING ROOT ACTIVITY FROM PREVIOUS STRESS PERIOD. CURRENT PERIOD IS:      47
 
 SOLVING FOR HEAD 
                                                   Max.-Head-Change                         Max.-Flux-Residual
  Residual-Control   Outer-Iter.   Inner-Iter.     Column Row Layer    Maximum-Head-Change  Column Row Layer    Maximum-Flux-Residual          L2-NORM 
          0                 1           2             2    1     1       0.1575753469E-02       2    1    1         0.8193581792E-01      0.1304835651E+00
          0                 2           2             2    1     1      -0.1532779851E-03       2    1    1        -0.8193591164E-02      0.1304836478E-01
          0                 3           1             2    1     1       0.1043766073E-04       2    1    1         0.5735515375E-03      0.9133857538E-03

    ------------------------------------------------
       NWT REQUIRED            3 OUTER ITERATIONS 
       AND A TOTAL OF          5 INNER ITERATIONS.
    ------------------------------------------------

 NO OUTPUT CONTROL FOR STRESS PERIOD   47   TIME STEP    1
 
 SOLVING FOR HEAD 
                                                   Max.-Head-Change                         Max.-Flux-Residual
  Residual-Control   Outer-Iter.   Inner-Iter.     Column Row Layer    Maximum-Head-Change  Column Row Layer    Maximum-Flux-Residual          L2-NORM 
          0                 1           2             2    1     1       0.1571531034E-02       2    1    1         0.8171551298E-01      0.1294700340E+00
          0                 2           2             2    1     1      -0.1528672566E-03       2    1    1        -0.8171560606E-02      0.1294701133E-01
          0                 3           1             2    1     1       0.1040969163E-04       2    1    1         0.5720094118E-03      0.9062920382E-03

    ------------------------------------------------
       NWT REQUIRED            3 OUTER ITERATIONS 
       AND A TOTAL OF          5 INNER ITERATIONS.
    ------------------------------------------------

 NO OUTPUT CONTROL FOR STRESS PERIOD   47   TIME STEP    2
 
 SOLVING FOR HEAD 
                                                   Max.-Head-Change                         Max.-Flux-Residual
  Residual-Control   Outer-Iter.   Inner-Iter.     Column Row Layer    Maximum-Head-Change  Column Row Layer    Maximum-Flux-Residual          L2-NORM 
          0                 1           2             2    1     1       0.1567312611E-02       2    1    1         0.8149542733E-01      0.1284836803E+00
          0                 2           2             2    1     1      -0.1524569182E-03       2    1    1        -0.8149551985E-02      0.1284837680E-01
          0                 3           1             2    1     1       0.1038174904E-04       2    1    1         0.5704687988E-03      0.8993865838E-03

    ------------------------------------------------
       NWT REQUIRED            3 OUTER ITERATIONS 
       AND A TOTAL OF          5 INNER ITERATIONS.
    ------------------------------------------------

 NO OUTPUT CONTROL FOR STRESS PERIOD   47   TIME STEP    3
 
 SOLVING FOR HEAD 
                                                   Max.-Head-Change                         Max.-Flux-Residual
  Residual-Control   Outer-Iter.   Inner-Iter.     Column Row Layer    Maximum-Head-Change  Column Row Layer    Maximum-Flux-Residual          L2-NORM 
          0                 1           2             2    1     1       0.1563142477E-02       2    1    1         0.8127786249E-01      0.1275145974E+00
          0                 2           2             2    1     1      -0.1520512766E-03       2    1    1        -0.8127795419E-02      0.1275146805E-01
          0                 3           1             2    1     1       0.1035412666E-04       2    1    1         0.5689458467E-03      0.8926031294E-03

    ------------------------------------------------
       NWT REQUIRED            3 OUTER ITERATIONS 
       AND A TOTAL OF          5 INNER ITERATIONS.
    ------------------------------------------------

 NO OUTPUT CONTROL FOR STRESS PERIOD   47   TIME STEP    4
 
 SOLVING FOR HEAD 
                                                   Max.-Head-Change                         Max.-Flux-Residual
  Residual-Control   Outer-Iter.   Inner-Iter.     Column Row Layer    Maximum-Head-Change  Column Row Layer    Maximum-Flux-Residual          L2-NORM 
          0                 1           2             2    1     1       0.1558998062E-02       2    1    1         0.8106164502E-01      0.1265751052E+00
          0                 2           2             2    1     1      -0.1516481366E-03       2    1    1        -0.8106173593E-02      0.1265751857E-01
          0                 3           1             2    1     1       0.1032667398E-04       2    1    1         0.5674322987E-03      0.8860270270E-03

    ------------------------------------------------
       NWT REQUIRED            3 OUTER ITERATIONS 
       AND A TOTAL OF          5 INNER ITERATIONS.
    ------------------------------------------------

 NO OUTPUT CONTROL FOR STRESS PERIOD   47   TIME STEP    5
 
 SOLVING FOR HEAD 
                                                   Max.-Head-Change                         Max.-Flux-Residual
  Residual-Control   Outer-Iter.   Inner-Iter.     Column Row Layer    Maximum-Head-Change  Column Row Layer    Maximum-Flux-Residual          L2-NORM 
          0                 1           2             2    1     1       0.1554856884E-02       2    1    1         0.8084560450E-01      0.1256543624E+00
          0                 2           2             2    1     1      -0.1512453121E-03       2    1    1        -0.8084569459E-02      0.1256544460E-01
          0                 3           1             2    1     1       0.1029924355E-04       2    1    1         0.5659200342E-03      0.8795822309E-03

    ------------------------------------------------
       NWT REQUIRED            3 OUTER ITERATIONS 
       AND A TOTAL OF          5 INNER ITERATIONS.
    ------------------------------------------------

 NO OUTPUT CONTROL FOR STRESS PERIOD   47   TIME STEP    6
 
 SOLVING FOR HEAD 
                                                   Max.-Head-Change                         Max.-Flux-Residual
  Residual-Control   Outer-Iter.   Inner-Iter.     Column Row Layer    Maximum-Head-Change  Column Row Layer    Maximum-Flux-Residual          L2-NORM 
          0                 1           2             2    1     1       0.1550269259E-02       2    1    1         0.8063204492E-01      0.1362613885E+00
          0                 2           2             2    1     1      -0.1507990680E-03       2    1    1        -0.8063213944E-02      0.1362614703E-01
          0                 3           1             2    1     1       0.1026885565E-04       2    1    1         0.5644251402E-03      0.9538309016E-03

    ------------------------------------------------
       NWT REQUIRED            3 OUTER ITERATIONS 
       AND A TOTAL OF          5 INNER ITERATIONS.
    ------------------------------------------------

 NO OUTPUT CONTROL FOR STRESS PERIOD   47   TIME STEP    7
 
 SOLVING FOR HEAD 
                                                   Max.-Head-Change                         Max.-Flux-Residual
  Residual-Control   Outer-Iter.   Inner-Iter.     Column Row Layer    Maximum-Head-Change  Column Row Layer    Maximum-Flux-Residual          L2-NORM 
          0                 1           2             2    1     1       0.1545286215E-02       2    1    1         0.8039301639E-01      0.1462315094E+00
          0                 2           2             2    1     1      -0.1503143570E-03       2    1    1        -0.8039311308E-02      0.1462315778E-01
          0                 3           1             2    1     1       0.1023584801E-04       2    1    1         0.5627519430E-03      0.1023621271E-02

    ------------------------------------------------
       NWT REQUIRED            3 OUTER ITERATIONS 
       AND A TOTAL OF          5 INNER ITERATIONS.
    ------------------------------------------------

 NO OUTPUT CONTROL FOR STRESS PERIOD   47   TIME STEP    8
 
 SOLVING FOR HEAD 
                                                   Max.-Head-Change                         Max.-Flux-Residual
  Residual-Control   Outer-Iter.   Inner-Iter.     Column Row Layer    Maximum-Head-Change  Column Row Layer    Maximum-Flux-Residual          L2-NORM 
          0                 1           2             2    1     1       0.1540357051E-02       2    1    1         0.8013580061E-01      0.1448592063E+00
          0                 2           2             2    1     1      -0.1498348824E-03       2    1    1        -0.8013589653E-02      0.1448592832E-01
          0                 3           1             2    1     1       0.1020319775E-04       2    1    1         0.5609514254E-03      0.1014015451E-02

    ------------------------------------------------
       NWT REQUIRED            3 OUTER ITERATIONS 
       AND A TOTAL OF          5 INNER ITERATIONS.
    ------------------------------------------------

 NO OUTPUT CONTROL FOR STRESS PERIOD   47   TIME STEP    9
 
 SOLVING FOR HEAD 
                                                   Max.-Head-Change                         Max.-Flux-Residual
  Residual-Control   Outer-Iter.   Inner-Iter.     Column Row Layer    Maximum-Head-Change  Column Row Layer    Maximum-Flux-Residual          L2-NORM 
          0                 1           2             2    1     1       0.1535436892E-02       2    1    1         0.7987907126E-01      0.1435187519E+00
          0                 2           2             2    1     1      -0.1493562838E-03       2    1    1        -0.7987916629E-02      0.1435188278E-01
          0                 3           1             2    1     1       0.1017060689E-04       2    1    1         0.5591543156E-03      0.1004632187E-02

    ------------------------------------------------
       NWT REQUIRED            3 OUTER ITERATIONS 
       AND A TOTAL OF          5 INNER ITERATIONS.
    ------------------------------------------------

 NO OUTPUT CONTROL FOR STRESS PERIOD   47   TIME STEP   10
 
 SOLVING FOR HEAD 
                                                   Max.-Head-Change                         Max.-Flux-Residual
  Residual-Control   Outer-Iter.   Inner-Iter.     Column Row Layer    Maximum-Head-Change  Column Row Layer    Maximum-Flux-Residual          L2-NORM 
          0                 1           2             2    1     1       0.1530569979E-02       2    1    1         0.7962512236E-01      0.1422186907E+00
          0                 2           2             2    1     1      -0.1488828646E-03       2    1    1        -0.7962521666E-02      0.1422187645E-01
          0                 3           1             2    1     1       0.1013836844E-04       2    1    1         0.5573766540E-03      0.9955321982E-03

    ------------------------------------------------
       NWT REQUIRED            3 OUTER ITERATIONS 
       AND A TOTAL OF          5 INNER ITERATIONS.
    ------------------------------------------------

 NO OUTPUT CONTROL FOR STRESS PERIOD   47   TIME STEP   11
 
 SOLVING FOR HEAD 
                                                   Max.-Head-Change                         Max.-Flux-Residual
  Residual-Control   Outer-Iter.   Inner-Iter.     Column Row Layer    Maximum-Head-Change  Column Row Layer    Maximum-Flux-Residual          L2-NORM 
          0                 1           2             2    1     1       0.1525711426E-02       2    1    1         0.7937162058E-01      0.1409459568E+00
          0                 2           2             2    1     1      -0.1484102586E-03       2    1    1        -0.7937171400E-02      0.1409460419E-01
          0                 3           1             2    1     1       0.1010618609E-04       2    1    1         0.5556021399E-03      0.9866232002E-03

    ------------------------------------------------
       NWT REQUIRED            3 OUTER ITERATIONS 
       AND A TOTAL OF          5 INNER ITERATIONS.
    ------------------------------------------------

 NO OUTPUT CONTROL FOR STRESS PERIOD   47   TIME STEP   12
 
 SOLVING FOR HEAD 
                                                   Max.-Head-Change                         Max.-Flux-Residual
  Residual-Control   Outer-Iter.   Inner-Iter.     Column Row Layer    Maximum-Head-Change  Column Row Layer    Maximum-Flux-Residual          L2-NORM 
          0                 1           2             2    1     1       0.1520883333E-02       2    1    1         0.7911970909E-01      0.1397062705E+00
          0                 2           2             2    1     1      -0.1479406157E-03       2    1    1        -0.7911980185E-02      0.1397063442E-01
          0                 3           1             2    1     1       0.1007420514E-04       2    1    1         0.5538387536E-03      0.9779469432E-03

    ------------------------------------------------
       NWT REQUIRED            3 OUTER ITERATIONS 
       AND A TOTAL OF          5 INNER ITERATIONS.
    ------------------------------------------------

 NO OUTPUT CONTROL FOR STRESS PERIOD   47   TIME STEP   13
 
 SOLVING FOR HEAD 
                                                   Max.-Head-Change                         Max.-Flux-Residual
  Residual-Control   Outer-Iter.   Inner-Iter.     Column Row Layer    Maximum-Head-Change  Column Row Layer    Maximum-Flux-Residual          L2-NORM 
          0                 1           2             2    1     1       0.1516107542E-02       2    1    1         0.7887053383E-01      0.1385018909E+00
          0                 2           2             2    1     1      -0.1474760604E-03       2    1    1        -0.7887062566E-02      0.1385019617E-01
          0                 3           1             2    1     1       0.1004257091E-04       2    1    1         0.5520945429E-03      0.9695133232E-03

    ------------------------------------------------
       NWT REQUIRED            3 OUTER ITERATIONS 
       AND A TOTAL OF          5 INNER ITERATIONS.
    ------------------------------------------------

 NO OUTPUT CONTROL FOR STRESS PERIOD   47   TIME STEP   14
 
 SOLVING FOR HEAD 
                                                   Max.-Head-Change                         Max.-Flux-Residual
  Residual-Control   Outer-Iter.   Inner-Iter.     Column Row Layer    Maximum-Head-Change  Column Row Layer    Maximum-Flux-Residual          L2-NORM 
          0                 1           2             2    1     1       0.1511339278E-02       2    1    1         0.7862175648E-01      0.1373224303E+00
          0                 2           2             2    1     1      -0.1470122370E-03       2    1    1        -0.7862184760E-02      0.1373225035E-01
          0                 3           1             2    1     1       0.1001098616E-04       2    1    1         0.5503530786E-03      0.9612579424E-03

    ------------------------------------------------
       NWT REQUIRED            3 OUTER ITERATIONS 
       AND A TOTAL OF          5 INNER ITERATIONS.
    ------------------------------------------------

 NO OUTPUT CONTROL FOR STRESS PERIOD   47   TIME STEP   15
 
 SOLVING FOR HEAD 
                                                   Max.-Head-Change                         Max.-Flux-Residual
  Residual-Control   Outer-Iter.   Inner-Iter.     Column Row Layer    Maximum-Head-Change  Column Row Layer    Maximum-Flux-Residual          L2-NORM 
          0                 1           2             2    1     1       0.1506600582E-02       2    1    1         0.7837452637E-01      0.1361685303E+00
          0                 2           2             2    1     1      -0.1465512899E-03       2    1    1        -0.7837461669E-02      0.1361686003E-01
          0                 3           1             2    1     1       0.9979597127E-05       2    1    1         0.5486224567E-03      0.9531871575E-03

    ------------------------------------------------
       NWT REQUIRED            3 OUTER ITERATIONS 
       AND A TOTAL OF          5 INNER ITERATIONS.
    ------------------------------------------------

 NO OUTPUT CONTROL FOR STRESS PERIOD   47   TIME STEP   16
 
 SOLVING FOR HEAD 
                                                   Max.-Head-Change                         Max.-Flux-Residual
  Residual-Control   Outer-Iter.   Inner-Iter.     Column Row Layer    Maximum-Head-Change  Column Row Layer    Maximum-Flux-Residual          L2-NORM 
          0                 1           2             2    1     1       0.1501913386E-02       2    1    1         0.7812998648E-01      0.1350479984E+00
          0                 2           2             2    1     1      -0.1460953526E-03       2    1    1        -0.7813007598E-02      0.1350480604E-01
          0                 3           1             2    1     1       0.9948550090E-05       2    1    1         0.5469106982E-03      0.9453372555E-03

    ------------------------------------------------
       NWT REQUIRED            3 OUTER ITERATIONS 
       AND A TOTAL OF          5 INNER ITERATIONS.
    ------------------------------------------------

 NO OUTPUT CONTROL FOR STRESS PERIOD   47   TIME STEP   17
 
 SOLVING FOR HEAD 
                                                   Max.-Head-Change                         Max.-Flux-Residual
  Residual-Control   Outer-Iter.   Inner-Iter.     Column Row Layer    Maximum-Head-Change  Column Row Layer    Maximum-Flux-Residual          L2-NORM 
          0                 1           2             2    1     1       0.1497232818E-02       2    1    1         0.7788580256E-01      0.1339500024E+00
          0                 2           2             2    1     1      -0.1456400597E-03       2    1    1        -0.7788589132E-02      0.1339500960E-01
          0                 3           1             2    1     1       0.9917546365E-05       2    1    1         0.5452014038E-03      0.9376516998E-03

    ------------------------------------------------
       NWT REQUIRED            3 OUTER ITERATIONS 
       AND A TOTAL OF          5 INNER ITERATIONS.
    ------------------------------------------------

 NO OUTPUT CONTROL FOR STRESS PERIOD   47   TIME STEP   18
 
 SOLVING FOR HEAD 
                                                   Max.-Head-Change                         Max.-Flux-Residual
  Residual-Control   Outer-Iter.   Inner-Iter.     Column Row Layer    Maximum-Head-Change  Column Row Layer    Maximum-Flux-Residual          L2-NORM 
          0                 1           2             2    1     1       0.1492580903E-02       2    1    1         0.7764311939E-01      0.1328712249E+00
          0                 2           2             2    1     1      -0.1451875540E-03       2    1    1        -0.7764320730E-02      0.1328712960E-01
          0                 3           1             2    1     1       0.9886732452E-05       2    1    1         0.5435026086E-03      0.9301010568E-03

    ------------------------------------------------
       NWT REQUIRED            3 OUTER ITERATIONS 
       AND A TOTAL OF          5 INNER ITERATIONS.
    ------------------------------------------------

 NO OUTPUT CONTROL FOR STRESS PERIOD   47   TIME STEP   19
 
 SOLVING FOR HEAD 
                                                   Max.-Head-Change                         Max.-Flux-Residual
  Residual-Control   Outer-Iter.   Inner-Iter.     Column Row Layer    Maximum-Head-Change  Column Row Layer    Maximum-Flux-Residual          L2-NORM 
          0                 1           2             2    1     1       0.1487957355E-02       2    1    1         0.7740192188E-01      0.1318277037E+00
          0                 2           2             2    1     1      -0.1447378077E-03       2    1    1        -0.7740200910E-02      0.1318277754E-01
          0                 3           1             2    1     1       0.9856106220E-05       2    1    1         0.5418142165E-03      0.9227961253E-03

    ------------------------------------------------
       NWT REQUIRED            3 OUTER ITERATIONS 
       AND A TOTAL OF          5 INNER ITERATIONS.
    ------------------------------------------------

 NO OUTPUT CONTROL FOR STRESS PERIOD   47   TIME STEP   20
 
 SOLVING FOR HEAD 
                                                   Max.-Head-Change                         Max.-Flux-Residual
  Residual-Control   Outer-Iter.   Inner-Iter.     Column Row Layer    Maximum-Head-Change  Column Row Layer    Maximum-Flux-Residual          L2-NORM 
          0                 1           2             2    1     1       0.1483361922E-02       2    1    1         0.7716219516E-01      0.1307990111E+00
          0                 2           2             2    1     1      -0.1442907967E-03       2    1    1        -0.7716228191E-02      0.1307990784E-01
          0                 3           1             2    1     1       0.9825666487E-05       2    1    1         0.5401361267E-03      0.9155949342E-03

    ------------------------------------------------
       NWT REQUIRED            3 OUTER ITERATIONS 
       AND A TOTAL OF          5 INNER ITERATIONS.
    ------------------------------------------------

 NO OUTPUT CONTROL FOR STRESS PERIOD   47   TIME STEP   21
 
 SOLVING FOR HEAD 
                                                   Max.-Head-Change                         Max.-Flux-Residual
  Residual-Control   Outer-Iter.   Inner-Iter.     Column Row Layer    Maximum-Head-Change  Column Row Layer    Maximum-Flux-Residual          L2-NORM 
          0                 1           2             2    1     1       0.1478794294E-02       2    1    1         0.7692392617E-01      0.1297950649E+00
          0                 2           2             2    1     1      -0.1438464896E-03       2    1    1        -0.7692401205E-02      0.1297951373E-01
          0                 3           1             2    1     1       0.9795410886E-05       2    1    1         0.5384682375E-03      0.9085664552E-03

    ------------------------------------------------
       NWT REQUIRED            3 OUTER ITERATIONS 
       AND A TOTAL OF          5 INNER ITERATIONS.
    ------------------------------------------------

 NO OUTPUT CONTROL FOR STRESS PERIOD   47   TIME STEP   22
 
 SOLVING FOR HEAD 
                                                   Max.-Head-Change                         Max.-Flux-Residual
  Residual-Control   Outer-Iter.   Inner-Iter.     Column Row Layer    Maximum-Head-Change  Column Row Layer    Maximum-Flux-Residual          L2-NORM 
          0                 1           2             2    1     1       0.1474254298E-02       2    1    1         0.7668709885E-01      0.1288100772E+00
          0                 2           2             2    1     1      -0.1434048711E-03       2    1    1        -0.7668718414E-02      0.1288101579E-01
          0                 3           1             2    1     1       0.9765338470E-05       2    1    1         0.5368104460E-03      0.9016713321E-03

    ------------------------------------------------
       NWT REQUIRED            3 OUTER ITERATIONS 
       AND A TOTAL OF          5 INNER ITERATIONS.
    ------------------------------------------------

 NO OUTPUT CONTROL FOR STRESS PERIOD   47   TIME STEP   23
 
 SOLVING FOR HEAD 
                                                   Max.-Head-Change                         Max.-Flux-Residual
  Residual-Control   Outer-Iter.   Inner-Iter.     Column Row Layer    Maximum-Head-Change  Column Row Layer    Maximum-Flux-Residual          L2-NORM 
          0                 1           2             2    1     1       0.1469741560E-02       2    1    1         0.7645170424E-01      0.1278527751E+00
          0                 2           2             2    1     1      -0.1429659037E-03       2    1    1        -0.7645178877E-02      0.1278528549E-01
          0                 3           1             2    1     1       0.9735446636E-05       2    1    1         0.5351626866E-03      0.8949704381E-03

    ------------------------------------------------
       NWT REQUIRED            3 OUTER ITERATIONS 
       AND A TOTAL OF          5 INNER ITERATIONS.
    ------------------------------------------------

 NO OUTPUT CONTROL FOR STRESS PERIOD   47   TIME STEP   24
 
 SOLVING FOR HEAD 
                                                   Max.-Head-Change                         Max.-Flux-Residual
  Residual-Control   Outer-Iter.   Inner-Iter.     Column Row Layer    Maximum-Head-Change  Column Row Layer    Maximum-Flux-Residual          L2-NORM 
          0                 1           2             2    1     1       0.1465255945E-02       2    1    1         0.7621772292E-01      0.1269154080E+00
          0                 2           2             2    1     1      -0.1425295743E-03       2    1    1        -0.7621780677E-02      0.1269155065E-01
          0                 3           1             2    1     1       0.9705733727E-05       2    1    1         0.5335247937E-03      0.8884125450E-03

    ------------------------------------------------
       NWT REQUIRED            3 OUTER ITERATIONS 
       AND A TOTAL OF          5 INNER ITERATIONS.
    ------------------------------------------------

 NO OUTPUT CONTROL FOR STRESS PERIOD   47   TIME STEP   25
 
 SOLVING FOR HEAD 
                                                   Max.-Head-Change                         Max.-Flux-Residual
  Residual-Control   Outer-Iter.   Inner-Iter.     Column Row Layer    Maximum-Head-Change  Column Row Layer    Maximum-Flux-Residual          L2-NORM 
          0                 1           2             2    1     1       0.1460797055E-02       2    1    1         0.7598514789E-01      0.1259985506E+00
          0                 2           2             2    1     1      -0.1420958450E-03       2    1    1        -0.7598523097E-02      0.1259986246E-01
          0                 3           1             2    1     1       0.9676198796E-05       2    1    1         0.5318967755E-03      0.8819904918E-03

    ------------------------------------------------
       NWT REQUIRED            3 OUTER ITERATIONS 
       AND A TOTAL OF          5 INNER ITERATIONS.
    ------------------------------------------------

 NO OUTPUT CONTROL FOR STRESS PERIOD   47   TIME STEP   26
 
 SOLVING FOR HEAD 
                                                   Max.-Head-Change                         Max.-Flux-Residual
  Residual-Control   Outer-Iter.   Inner-Iter.     Column Row Layer    Maximum-Head-Change  Column Row Layer    Maximum-Flux-Residual          L2-NORM 
          0                 1           2             2    1     1       0.1456364732E-02       2    1    1         0.7575395854E-01      0.1250960888E+00
          0                 2           2             2    1     1      -0.1416646998E-03       2    1    1        -0.7575404095E-02      0.1250961496E-01
          0                 3           1             2    1     1       0.9646839477E-05       2    1    1         0.5302784520E-03      0.8756733636E-03

    ------------------------------------------------
       NWT REQUIRED            3 OUTER ITERATIONS 
       AND A TOTAL OF          5 INNER ITERATIONS.
    ------------------------------------------------

 NO OUTPUT CONTROL FOR STRESS PERIOD   47   TIME STEP   27
 
 SOLVING FOR HEAD 
                                                   Max.-Head-Change                         Max.-Flux-Residual
  Residual-Control   Outer-Iter.   Inner-Iter.     Column Row Layer    Maximum-Head-Change  Column Row Layer    Maximum-Flux-Residual          L2-NORM 
          0                 1           2             2    1     1       0.1451958749E-02       2    1    1         0.7552414667E-01      0.1242128108E+00
          0                 2           2             2    1     1      -0.1412361166E-03       2    1    1        -0.7552422838E-02      0.1242128961E-01
          0                 3           1             2    1     1       0.9617654349E-05       2    1    1         0.5286697558E-03      0.8694906927E-03

    ------------------------------------------------
       NWT REQUIRED            3 OUTER ITERATIONS 
       AND A TOTAL OF          5 INNER ITERATIONS.
    ------------------------------------------------

 NO OUTPUT CONTROL FOR STRESS PERIOD   47   TIME STEP   28
 
 SOLVING FOR HEAD 
                                                   Max.-Head-Change                         Max.-Flux-Residual
  Residual-Control   Outer-Iter.   Inner-Iter.     Column Row Layer    Maximum-Head-Change  Column Row Layer    Maximum-Flux-Residual          L2-NORM 
          0                 1           2             2    1     1       0.1447578820E-02       2    1    1         0.7529570049E-01      0.1233528476E+00
          0                 2           2             2    1     1      -0.1408100681E-03       2    1    1        -0.7529578169E-02      0.1233529152E-01
          0                 3           1             2    1     1       0.9588642229E-05       2    1    1         0.5270706216E-03      0.8634707331E-03

    ------------------------------------------------
       NWT REQUIRED            3 OUTER ITERATIONS 
       AND A TOTAL OF          5 INNER ITERATIONS.
    ------------------------------------------------

 NO OUTPUT CONTROL FOR STRESS PERIOD   47   TIME STEP   29
 
 SOLVING FOR HEAD 
                                                   Max.-Head-Change                         Max.-Flux-Residual
  Residual-Control   Outer-Iter.   Inner-Iter.     Column Row Layer    Maximum-Head-Change  Column Row Layer    Maximum-Flux-Residual          L2-NORM 
          0                 1           2             1    2     1       0.1443645389E-02       2    1    1         0.7506744750E-01      0.1287109004E+00
          0                 2           2             1    2     1      -0.1404274248E-03       2    1    1        -0.7506752950E-02      0.1287109765E-01
          0                 3           1             1    2     1       0.9562585685E-05       2    1    1         0.5254728618E-03      0.9009780061E-03

    ------------------------------------------------
       NWT REQUIRED            3 OUTER ITERATIONS 
       AND A TOTAL OF          5 INNER ITERATIONS.
    ------------------------------------------------

 NO OUTPUT CONTROL FOR STRESS PERIOD   47   TIME STEP   30



 STREAM LISTING     PERIOD     47   STEP       30

 LAYER ROW COL. STREAM  RCH.  FLOW INTO     FLOW TO   FLOW OUT OF   OVRLND.     DIRECT     STREAM       STREAM     STREAM     STREAM   STREAMBED  STREAMBED
                SEG.NO.  NO.  STRM. RCH.    AQUIFER    STRM. RCH.    RUNOFF     PRECIP       ET          HEAD       DEPTH      WIDTH   CONDCTNC.   GRADIENT

   1    1    1     1     1    1.5942E+01  1.9373E-01   1.5748E+01  0.000E+00  0.000E+00  0.000E+00  1.09408E+03  1.028E+00  1.069E+01  4.809E-02  1.343E+00
   1    2    2     1     2    1.5748E+01  2.9868E-01   1.5450E+01  0.000E+00  0.000E+00  0.000E+00  1.08908E+03  1.024E+00  1.060E+01  7.423E-02  1.341E+00
   1    3    3     1     3    1.5450E+01  2.5341E-01   1.5196E+01  0.000E+00  0.000E+00  0.000E+00  1.08344E+03  1.018E+00  1.051E+01  6.306E-02  1.339E+00
   1    3    4     1     4    1.5196E+01  2.3228E-01   1.4964E+01  0.000E+00  0.000E+00  0.000E+00  1.07842E+03  1.014E+00  1.043E+01  5.787E-02  1.338E+00
   1    4    5     2     1    1.2964E+01  2.9708E-01   1.2667E+01  0.000E+00  0.000E+00  0.000E+00  1.07274E+03  8.087E-01  1.200E+01  7.800E-02  1.270E+00
   1    5    6     2     2    1.2667E+01  2.2792E-01   1.2439E+01  0.000E+00  0.000E+00  0.000E+00  1.06731E+03  7.987E-01  1.200E+01  6.000E-02  1.266E+00
   1    6    6     2     3    1.2439E+01  2.2740E-01   1.2211E+01  0.000E+00  0.000E+00  0.000E+00  1.06258E+03  7.900E-01  1.200E+01  6.000E-02  1.263E+00
   1    7    6     2     4    1.2211E+01  2.2687E-01   1.1985E+01  0.000E+00  0.000E+00  0.000E+00  1.05786E+03  7.812E-01  1.200E+01  6.000E-02  1.260E+00
   1    8    6     2     5    1.1985E+01  2.2634E-01   1.1758E+01  0.000E+00  0.000E+00  0.000E+00  1.05313E+03  7.724E-01  1.200E+01  6.000E-02  1.257E+00
   1    3    5     3     1    2.0000E+00  2.8252E-01   1.7175E+00  0.000E+00  0.000E+00  0.000E+00  1.07555E+03  1.909E+00  9.636E+00  7.227E-02  1.955E+00
   1    3    6     3     2    1.7175E+00  2.4905E-01   1.4684E+00  0.000E+00  0.000E+00  0.000E+00  1.07264E+03  1.727E+00  8.909E+00  6.682E-02  1.864E+00
   1    3    7     3     3    1.4684E+00  1.9718E-01   1.2712E+00  0.000E+00  0.000E+00  0.000E+00  1.06987E+03  1.555E+00  8.218E+00  5.547E-02  1.777E+00
   1    4    8     3     4    1.2712E+00  2.2567E-01   1.0456E+00  0.000E+00  0.000E+00  0.000E+00  1.06682E+03  1.364E+00  7.455E+00  6.709E-02  1.682E+00
   1    5    8     3     5    1.0456E+00  1.5790E-01   8.8768E-01  0.000E+00  0.000E+00  0.000E+00  1.06362E+03  1.164E+00  6.655E+00  4.991E-02  1.582E+00
   1    6    8     3     6    8.8768E-01  5.5980E-02   8.3170E-01  0.000E+00  0.000E+00  0.000E+00  1.06158E+03  1.036E+00  6.145E+00  1.844E-02  1.518E+00
   1    5   10     4     1    1.0000E+01  9.0919E-02   9.9091E+00  0.000E+00  0.000E+00  0.000E+00  1.07836E+03  6.368E-01  1.000E+01  2.500E-02  1.212E+00
   1    5    9     4     2    9.9091E+00  1.8158E-01   9.7275E+00  0.000E+00  0.000E+00  0.000E+00  1.07154E+03  6.315E-01  1.000E+01  5.000E-02  1.211E+00
   1    6    8     4     3    9.7275E+00  1.2689E-01   9.6006E+00  0.000E+00  0.000E+00  0.000E+00  1.06381E+03  6.256E-01  1.000E+01  3.500E-02  1.209E+00
   1    6    8     5     1    1.0432E+01  2.2686E-01   1.0205E+01  0.000E+00  0.000E+00  0.000E+00  1.05868E+03  6.790E-01  1.542E+01  6.166E-02  1.226E+00
   1    7    7     5     2    1.0205E+01  2.7894E-01   9.9265E+00  0.000E+00  0.000E+00  0.000E+00  1.05417E+03  6.732E-01  1.519E+01  7.594E-02  1.224E+00
   1    8    7     5     3    9.9265E+00  1.9221E-01   9.7343E+00  0.000E+00  0.000E+00  0.000E+00  1.04992E+03  6.676E-01  1.497E+01  5.241E-02  1.223E+00
   1    8    6     5     4    9.7343E+00  1.3577E-01   9.5985E+00  0.000E+00  0.000E+00  0.000E+00  1.04691E+03  6.637E-01  1.482E+01  3.706E-02  1.221E+00
   1    9    6     6     1    9.5985E+00  2.2097E-01   9.3776E+00  0.000E+00  0.000E+00  0.000E+00  1.04341E+03  6.828E-01  1.200E+01  6.000E-02  1.228E+00
   1   10    7     6     2    9.3776E+00  2.2039E-01   9.1572E+00  0.000E+00  0.000E+00  0.000E+00  1.03885E+03  6.732E-01  1.200E+01  6.000E-02  1.224E+00
   1   11    7     6     3    9.1572E+00  2.1981E-01   8.9374E+00  0.000E+00  0.000E+00  0.000E+00  1.03430E+03  6.636E-01  1.200E+01  6.000E-02  1.221E+00
   1   12    7     6     4    8.9374E+00  2.1923E-01   8.7181E+00  0.000E+00  0.000E+00  0.000E+00  1.02974E+03  6.539E-01  1.200E+01  6.000E-02  1.218E+00
   1   13    7     6     5    8.7181E+00 -1.1048E-01   8.8286E+00  0.000E+00  0.000E+00  0.000E+00  1.02656E+03  6.514E-01  1.200E+01  2.400E-01 -1.535E-01
   1   14    9     7     1    1.5000E+02  1.3459E+00   1.4865E+02  0.000E+00  0.000E+00  0.000E+00  1.03987E+03  2.288E+00  5.529E+01  5.593E-01  8.022E-01
   1   13    8     7     2    1.4865E+02  1.8508E+00   1.4680E+02  0.000E+00  0.000E+00  0.000E+00  1.03478E+03  2.279E+00  5.526E+01  6.148E-01  1.003E+00
   1   13    7     7     3    1.4680E+02  1.4903E+00   1.4531E+02  0.000E+00  0.000E+00  0.000E+00  1.02969E+03  2.270E+00  5.522E+01  5.584E-01  8.896E-01
   1   13    6     8     1    1.5414E+02  8.4257E-01   1.5330E+02  0.000E+00  0.000E+00  0.000E+00  1.02472E+03  2.843E+00  4.122E+01  4.201E-01  6.686E-01
   1   13    5     8     2    1.5330E+02  1.1220E-01   1.5319E+02  0.000E+00  0.000E+00  0.000E+00  1.01846E+03  2.840E+00  4.117E+01  4.196E-01  8.914E-02
   1   13    4     8     3    1.5319E+02 -2.6401E+00   1.5583E+02  0.000E+00  0.000E+00  0.000E+00  1.01222E+03  2.848E+00  4.130E+01  4.209E+00 -2.091E-01
   1   13    3     8     4    1.5583E+02 -3.7260E+00   1.5955E+02  0.000E+00  0.000E+00  0.000E+00  1.00600E+03  2.870E+00  4.162E+01  4.241E+00 -2.929E-01
   1   13    2     8     5    1.5955E+02 -2.5920E+00   1.6214E+02  0.000E+00  0.000E+00  0.000E+00  9.99767E+02  2.892E+00  4.193E+01  4.273E+00 -2.022E-01
   1   13    1     8     6    1.6214E+02 -1.9791E+00   1.6412E+02  0.000E+00  0.000E+00  0.000E+00  9.94782E+02  2.907E+00  4.215E+01  2.577E+00 -2.560E-01
   1    8    6     9     1    1.1758E+01  0.0000E+00   1.1758E+01  0.000E+00  0.000E+00  0.000E+00  1.08125E+03  2.497E+00  4.000E+00  0.000E+00  1.832E+00
   1    8    5     9     2    1.1758E+01  0.0000E+00   1.1758E+01  0.000E+00  0.000E+00  0.000E+00  1.08075E+03  2.497E+00  4.000E+00  0.000E+00  1.832E+00





UNSATURATED ZONE PACKAGE VOLUMETRIC BUDGET FOR  TIME STEP    30 STRESS PERIOD   47
  ------------------------------------------------------------------------------



     CUMULATIVE VOLUMES      L**3       RATES FOR THIS TIME STEP      L**3/T
     ------------------                 ------------------------

           IN:                                      IN:
           ---                                      ---
        INFILTRATION =   102603768.1461          INFILTRATION =           0.8475

          OUT:                                     OUT:
          ----                                     ----
              UZF ET =   101778752.9288                UZF ET =           0.8475
        UZF RECHARGE =       73224.0000          UZF RECHARGE =       0.0000E+00

            IN - OUT =      751791.2173              IN - OUT =       0.0000E+00

          STORAGE:                                 STORAGE:
          --------                                 --------
      STORAGE CHANGE =      751791.5911        STORAGE CHANGE =       3.3198E-16

 PERCENT DISCREPANCY IS DIFFERENCE BETWEEN IN-OUT MINUS CHANGE IN STORAGE
 DIVIDED BY THE AVERAGE OF IN AND OUT TIMES 100

 PERCENT DISCREPANCY =           0.00     PERCENT DISCREPANCY =           0.00






1
  VOLUMETRIC BUDGET FOR ENTIRE MODEL AT END OF TIME STEP   30, STRESS PERIOD  47
  ------------------------------------------------------------------------------

     CUMULATIVE VOLUMES      L**3       RATES FOR THIS TIME STEP      L**3/T
     ------------------                 ------------------------

           IN:                                      IN:
           ---                                      ---
             STORAGE     =    33338422.0000               STORAGE     =           0.2508
       CONSTANT HEAD     =           0.0000         CONSTANT HEAD     =           0.0000
     HEAD DEP BOUNDS     =    34649688.0000       HEAD DEP BOUNDS     =           0.2864
      STREAM LEAKAGE     =  1418959360.0000        STREAM LEAKAGE     =          11.1074
        UZF RECHARGE     =       73223.9531          UZF RECHARGE     =           0.0000
               GW ET     =           0.0000                 GW ET     =           0.0000
     SURFACE LEAKAGE     =           0.0000       SURFACE LEAKAGE     =           0.0000

                TOTAL IN =  1487020672.0000                  TOTAL IN =          11.6447

          OUT:                                     OUT:
          ----                                     ----
             STORAGE     =   112556184.0000               STORAGE     =           0.3101
       CONSTANT HEAD     =           0.0000         CONSTANT HEAD     =           0.0000
     HEAD DEP BOUNDS     =    34735996.0000       HEAD DEP BOUNDS     =           0.2869
      STREAM LEAKAGE     =  1339746816.0000        STREAM LEAKAGE     =          11.0477
        UZF RECHARGE     =           0.0000          UZF RECHARGE     =           0.0000
               GW ET     =           0.0000                 GW ET     =           0.0000
     SURFACE LEAKAGE     =           0.0000       SURFACE LEAKAGE     =           0.0000

               TOTAL OUT =  1487038976.0000                 TOTAL OUT =          11.6447

                IN - OUT =      -18304.0000                  IN - OUT =      -1.3351E-05

     PERCENT DISCREPANCY =          -0.00         PERCENT DISCREPANCY =          -0.00






         TIME SUMMARY AT END OF TIME STEP   30 IN STRESS PERIOD   47
                    SECONDS     MINUTES      HOURS       DAYS        YEARS
                    -----------------------------------------------------------
   TIME STEP LENGTH  87667.      1461.1      24.352      1.0147     2.77799E-03
 STRESS PERIOD TIME 2.63000E+06  43833.      730.56      30.440     8.33397E-02
         TOTAL TIME 1.21065E+08 2.01775E+06  33629.      1401.2      3.8363    
1
1
                            STRESS PERIOD NO.   48, LENGTH =   2630000.    
                            -----------------------------------------------

                              NUMBER OF TIME STEPS =    30

                               MULTIPLIER FOR DELT =     1.000

                            INITIAL TIME STEP SIZE =   87666.66    

 REUSING NON-PARAMETER GHB CELLS FROM LAST STRESS PERIOD

      2 GHB CELLS

 REUSING STREAM SEGMENT DATA FROM LAST STRESS PERIOD



            AREAL INFILTRATION RATE
 READING ON UNIT   19 WITH FORMAT: (FREE)              

            1           2           3           4           5           6           7           8           9          10
 ........................................................................................................................
   1   1.0000E-10  2.0000E-10   0.000       0.000       0.000       0.000       0.000       0.000       0.000       0.000    
   2   2.0000E-10  1.0000E-10  2.0000E-10   0.000       0.000      8.0000E-10  8.0000E-10  5.0000E-10   0.000       0.000    
   3    0.000      5.0000E-10  1.0000E-10  1.0000E-10  8.0000E-10  8.0000E-10  5.0000E-10  5.0000E-10   0.000       0.000    
   4   8.0000E-10  5.0000E-10  1.0000E-10  1.0000E-10  1.0000E-10  1.0000E-10  1.0000E-10  1.0000E-10  2.0000E-10   0.000    
   5   8.0000E-10  5.0000E-10  1.0000E-10  1.0000E-10  1.0000E-10  1.0000E-10  1.0000E-10  1.0000E-10  1.0000E-10  1.0000E-10
   6   8.0000E-10  5.0000E-10  5.0000E-10  2.0000E-10  2.0000E-10  1.0000E-10  1.0000E-10  1.0000E-10  1.0000E-10  5.0000E-10
   7   8.0000E-10  5.0000E-10  5.0000E-10  2.0000E-10  2.0000E-10  1.0000E-10  1.0000E-10  2.0000E-10  2.0000E-10   0.000    
   8    0.000      5.0000E-10  5.0000E-10  2.0000E-10  2.0000E-10  1.0000E-10  1.0000E-10  2.0000E-10  5.0000E-10   0.000    
   9    0.000      5.0000E-10  5.0000E-10  2.0000E-10  2.0000E-10  1.0000E-10  1.0000E-10  2.0000E-10  5.0000E-10   0.000    
  10    0.000      5.0000E-10  5.0000E-10  2.0000E-10  2.0000E-10  1.0000E-10  1.0000E-10  2.0000E-10  5.0000E-10  8.0000E-10
  11    0.000      1.0000E-10  1.0000E-10  1.0000E-10  1.0000E-10  1.0000E-10  1.0000E-10  2.0000E-10  5.0000E-10   0.000    
  12   1.0000E-10  1.0000E-10  1.0000E-10  1.0000E-10  1.0000E-10  1.0000E-10  1.0000E-10  1.0000E-10  2.0000E-10   0.000    
  13   1.0000E-10  1.0000E-10  2.0000E-10  2.0000E-10  2.0000E-10  2.0000E-10  2.0000E-10  1.0000E-10  1.0000E-10   0.000    
  14    0.000      2.0000E-10  5.0000E-10  5.0000E-10  5.0000E-10  5.0000E-10  5.0000E-10  2.0000E-10  1.0000E-10   0.000    
  15    0.000       0.000      8.0000E-10  8.0000E-10  8.0000E-10  8.0000E-10   0.000       0.000       0.000       0.000    

                  ET RATE =  5.000000E-10

 USING ET EXTINCTION DEPTH FROM PREVIOUS STRESS PERIOD. CURRENT PERIOD IS:      48

 USING EXTINCTION WATER CONTENT FROM PREVIOUS STRESS PERIOD. CURRENT PERIOD IS:      48

 USING AIR ENTRY PRESSURE FROM PREVIOUS STRESS PERIOD. CURRENT PERIOD IS:      48

 USING ROOT PRESSURE HEAD FROM PREVIOUS STRESS PERIOD. CURRENT PERIOD IS:      48

 USING ROOT ACTIVITY FROM PREVIOUS STRESS PERIOD. CURRENT PERIOD IS:      48
 
 SOLVING FOR HEAD 
                                                   Max.-Head-Change                         Max.-Flux-Residual
  Residual-Control   Outer-Iter.   Inner-Iter.     Column Row Layer    Maximum-Head-Change  Column Row Layer    Maximum-Flux-Residual          L2-NORM 
          0                 1           2             1    2     1       0.1440584312E-02       2    1    1         0.7482979541E-01      0.1300394388E+00
          0                 2           2             1    2     1      -0.1401296655E-03       2    1    1        -0.7482987744E-02      0.1300395141E-01
          0                 3           1             1    2     1       0.9542309413E-05       2    1    1         0.5238092852E-03      0.9102789555E-03

    ------------------------------------------------
       NWT REQUIRED            3 OUTER ITERATIONS 
       AND A TOTAL OF          5 INNER ITERATIONS.
    ------------------------------------------------

 NO OUTPUT CONTROL FOR STRESS PERIOD   48   TIME STEP    1
 
 SOLVING FOR HEAD 
                                                   Max.-Head-Change                         Max.-Flux-Residual
  Residual-Control   Outer-Iter.   Inner-Iter.     Column Row Layer    Maximum-Head-Change  Column Row Layer    Maximum-Flux-Residual          L2-NORM 
          0                 1           2             1    2     1       0.1437539558E-02       2    1    1         0.7458941471E-01      0.1290741316E+00
          0                 2           2             1    2     1      -0.1398334935E-03       2    1    1        -0.7458949588E-02      0.1290741963E-01
          0                 3           1             1    2     1       0.9522140827E-05       2    1    1         0.5221266092E-03      0.9035204120E-03

    ------------------------------------------------
       NWT REQUIRED            3 OUTER ITERATIONS 
       AND A TOTAL OF          5 INNER ITERATIONS.
    ------------------------------------------------

 NO OUTPUT CONTROL FOR STRESS PERIOD   48   TIME STEP    2
 
 SOLVING FOR HEAD 
                                                   Max.-Head-Change                         Max.-Flux-Residual
  Residual-Control   Outer-Iter.   Inner-Iter.     Column Row Layer    Maximum-Head-Change  Column Row Layer    Maximum-Flux-Residual          L2-NORM 
          0                 1           2             1    2     1       0.1434510983E-02       2    1    1         0.7435047119E-01      0.1281321079E+00
          0                 2           2             1    2     1      -0.1395388945E-03       2    1    1        -0.7435055168E-02      0.1281321705E-01
          0                 3           1             1    2     1       0.9502079690E-05       2    1    1         0.5204540097E-03      0.8969261260E-03

    ------------------------------------------------
       NWT REQUIRED            3 OUTER ITERATIONS 
       AND A TOTAL OF          5 INNER ITERATIONS.
    ------------------------------------------------

 NO OUTPUT CONTROL FOR STRESS PERIOD   48   TIME STEP    3
 
 SOLVING FOR HEAD 
                                                   Max.-Head-Change                         Max.-Flux-Residual
  Residual-Control   Outer-Iter.   Inner-Iter.     Column Row Layer    Maximum-Head-Change  Column Row Layer    Maximum-Flux-Residual          L2-NORM 
          0                 1           2             1    2     1       0.1431454190E-02       2    1    1         0.7411179305E-01      0.1272084399E+00
          0                 2           2             1    2     1      -0.1392415520E-03       2    1    1        -0.7411187281E-02      0.1272085048E-01
          0                 3           1             1    2     1       0.9481832292E-05       2    1    1         0.5187832653E-03      0.8904604623E-03

    ------------------------------------------------
       NWT REQUIRED            3 OUTER ITERATIONS 
       AND A TOTAL OF          5 INNER ITERATIONS.
    ------------------------------------------------

 NO OUTPUT CONTROL FOR STRESS PERIOD   48   TIME STEP    4
 
 SOLVING FOR HEAD 
                                                   Max.-Head-Change                         Max.-Flux-Residual
  Residual-Control   Outer-Iter.   Inner-Iter.     Column Row Layer    Maximum-Head-Change  Column Row Layer    Maximum-Flux-Residual          L2-NORM 
          0                 1           2             1    2     1       0.1428457556E-02       2    1    1         0.7387568367E-01      0.1263048561E+00
          0                 2           2             1    2     1      -0.1389500604E-03       2    1    1        -0.7387576294E-02      0.1263049217E-01
          0                 3           1             1    2     1       0.9461982741E-05       2    1    1         0.5171305047E-03      0.8841352353E-03

    ------------------------------------------------
       NWT REQUIRED            3 OUTER ITERATIONS 
       AND A TOTAL OF          5 INNER ITERATIONS.
    ------------------------------------------------

 NO OUTPUT CONTROL FOR STRESS PERIOD   48   TIME STEP    5
 
 SOLVING FOR HEAD 
                                                   Max.-Head-Change                         Max.-Flux-Residual
  Residual-Control   Outer-Iter.   Inner-Iter.     Column Row Layer    Maximum-Head-Change  Column Row Layer    Maximum-Flux-Residual          L2-NORM 
          0                 1           2             1    2     1       0.1425476627E-02       2    1    1         0.7363981229E-01      0.1254194287E+00
          0                 2           2             1    2     1      -0.1386600964E-03       2    1    1        -0.7363989070E-02      0.1254194955E-01
          0                 3           1             1    2     1       0.9442236617E-05       2    1    1         0.5154793741E-03      0.8779368581E-03

    ------------------------------------------------
       NWT REQUIRED            3 OUTER ITERATIONS 
       AND A TOTAL OF          5 INNER ITERATIONS.
    ------------------------------------------------

 NO OUTPUT CONTROL FOR STRESS PERIOD   48   TIME STEP    6
 
 SOLVING FOR HEAD 
                                                   Max.-Head-Change                         Max.-Flux-Residual
  Residual-Control   Outer-Iter.   Inner-Iter.     Column Row Layer    Maximum-Head-Change  Column Row Layer    Maximum-Flux-Residual          L2-NORM 
          0                 1           2             1    2     1       0.1422467096E-02       2    1    1         0.7340648441E-01      0.1245478152E+00
          0                 2           2             1    2     1      -0.1383673506E-03       2    1    1        -0.7340656242E-02      0.1245478784E-01
          0                 3           1             1    2     1       0.9422302100E-05       2    1    1         0.5138460762E-03      0.8718345558E-03

    ------------------------------------------------
       NWT REQUIRED            3 OUTER ITERATIONS 
       AND A TOTAL OF          5 INNER ITERATIONS.
    ------------------------------------------------

 NO OUTPUT CONTROL FOR STRESS PERIOD   48   TIME STEP    7
 
 SOLVING FOR HEAD 
                                                   Max.-Head-Change                         Max.-Flux-Residual
  Residual-Control   Outer-Iter.   Inner-Iter.     Column Row Layer    Maximum-Head-Change  Column Row Layer    Maximum-Flux-Residual          L2-NORM 
          0                 1           2             1    2     1       0.1419517248E-02       2    1    1         0.7317337320E-01      0.1237009439E+00
          0                 2           2             1    2     1      -0.1380804104E-03       2    1    1        -0.7317345049E-02      0.1237010037E-01
          0                 3           1             1    2     1       0.9402762355E-05       2    1    1         0.5122142966E-03      0.8659075935E-03

    ------------------------------------------------
       NWT REQUIRED            3 OUTER ITERATIONS 
       AND A TOTAL OF          5 INNER ITERATIONS.
    ------------------------------------------------

 NO OUTPUT CONTROL FOR STRESS PERIOD   48   TIME STEP    8
 
 SOLVING FOR HEAD 
                                                   Max.-Head-Change                         Max.-Flux-Residual
  Residual-Control   Outer-Iter.   Inner-Iter.     Column Row Layer    Maximum-Head-Change  Column Row Layer    Maximum-Flux-Residual          L2-NORM 
          0                 1           2             1    2     1       0.1416538493E-02       2    1    1         0.7294277774E-01      0.1228695789E+00
          0                 2           2             1    2     1      -0.1377906583E-03       2    1    1        -0.7294285436E-02      0.1228696491E-01
          0                 3           1             1    2     1       0.9383031378E-05       2    1    1         0.5106001345E-03      0.8600882542E-03

    ------------------------------------------------
       NWT REQUIRED            3 OUTER ITERATIONS 
       AND A TOTAL OF          5 INNER ITERATIONS.
    ------------------------------------------------

 NO OUTPUT CONTROL FOR STRESS PERIOD   48   TIME STEP    9
 
 SOLVING FOR HEAD 
                                                   Max.-Head-Change                         Max.-Flux-Residual
  Residual-Control   Outer-Iter.   Inner-Iter.     Column Row Layer    Maximum-Head-Change  Column Row Layer    Maximum-Flux-Residual          L2-NORM 
          0                 1           2             1    2     1       0.1413619149E-02       2    1    1         0.7271237292E-01      0.1220549937E+00
          0                 2           2             1    2     1      -0.1375066850E-03       2    1    1        -0.7271244915E-02      0.1220550536E-01
          0                 3           1             1    2     1       0.9363693988E-05       2    1    1         0.5089872967E-03      0.8543853787E-03

    ------------------------------------------------
       NWT REQUIRED            3 OUTER ITERATIONS 
       AND A TOTAL OF          5 INNER ITERATIONS.
    ------------------------------------------------

 NO OUTPUT CONTROL FOR STRESS PERIOD   48   TIME STEP   10
 
 SOLVING FOR HEAD 
                                                   Max.-Head-Change                         Max.-Flux-Residual
  Residual-Control   Outer-Iter.   Inner-Iter.     Column Row Layer    Maximum-Head-Change  Column Row Layer    Maximum-Flux-Residual          L2-NORM 
          0                 1           2             1    2     1       0.1410670601E-02       2    1    1         0.7248445996E-01      0.1212544275E+00
          0                 2           2             1    2     1      -0.1372198716E-03       2    1    1        -0.7248453527E-02      0.1212544917E-01
          0                 3           1             1    2     1       0.9344163710E-05       2    1    1         0.5073919071E-03      0.8487831442E-03

    ------------------------------------------------
       NWT REQUIRED            3 OUTER ITERATIONS 
       AND A TOTAL OF          5 INNER ITERATIONS.
    ------------------------------------------------

 NO OUTPUT CONTROL FOR STRESS PERIOD   48   TIME STEP   11
 
 SOLVING FOR HEAD 
                                                   Max.-Head-Change                         Max.-Flux-Residual
  Residual-Control   Outer-Iter.   Inner-Iter.     Column Row Layer    Maximum-Head-Change  Column Row Layer    Maximum-Flux-Residual          L2-NORM 
          0                 1           2             1    2     1       0.1407781245E-02       2    1    1         0.7225671234E-01      0.1204697569E+00
          0                 2           2             1    2     1      -0.1369388149E-03       2    1    1        -0.7225678706E-02      0.1204698287E-01
          0                 3           1             1    2     1       0.9325024415E-05       2    1    1         0.5057976489E-03      0.8432894850E-03

    ------------------------------------------------
       NWT REQUIRED            3 OUTER ITERATIONS 
       AND A TOTAL OF          5 INNER ITERATIONS.
    ------------------------------------------------

 NO OUTPUT CONTROL FOR STRESS PERIOD   48   TIME STEP   12
 
 SOLVING FOR HEAD 
                                                   Max.-Head-Change                         Max.-Flux-Residual
  Residual-Control   Outer-Iter.   Inner-Iter.     Column Row Layer    Maximum-Head-Change  Column Row Layer    Maximum-Flux-Residual          L2-NORM 
          0                 1           2             1    2     1       0.1404862309E-02       2    1    1         0.7203027879E-01      0.1197022277E+00
          0                 2           2             1    2     1      -0.1366548820E-03       2    1    1        -0.7203035288E-02      0.1197022971E-01
          0                 3           1             1    2     1       0.9305689629E-05       2    1    1         0.5042126118E-03      0.8379165934E-03

    ------------------------------------------------
       NWT REQUIRED            3 OUTER ITERATIONS 
       AND A TOTAL OF          5 INNER ITERATIONS.
    ------------------------------------------------

 NO OUTPUT CONTROL FOR STRESS PERIOD   48   TIME STEP   13
 
 SOLVING FOR HEAD 
                                                   Max.-Head-Change                         Max.-Flux-Residual
  Residual-Control   Outer-Iter.   Inner-Iter.     Column Row Layer    Maximum-Head-Change  Column Row Layer    Maximum-Flux-Residual          L2-NORM 
          0                 1           2             1    2     1       0.1402002287E-02       2    1    1         0.7180629853E-01      0.1189458614E+00
          0                 2           2             1    2     1      -0.1363766789E-03       2    1    1        -0.7180637228E-02      0.1189459361E-01
          0                 3           1             1    2     1       0.9286744880E-05       2    1    1         0.5026447620E-03      0.8326287317E-03

    ------------------------------------------------
       NWT REQUIRED            3 OUTER ITERATIONS 
       AND A TOTAL OF          5 INNER ITERATIONS.
    ------------------------------------------------

 NO OUTPUT CONTROL FOR STRESS PERIOD   48   TIME STEP   14
 
 SOLVING FOR HEAD 
                                                   Max.-Head-Change                         Max.-Flux-Residual
  Residual-Control   Outer-Iter.   Inner-Iter.     Column Row Layer    Maximum-Head-Change  Column Row Layer    Maximum-Flux-Residual          L2-NORM 
          0                 1           2             1    2     1       0.1399112493E-02       2    1    1         0.7158244684E-01      0.1182127348E+00
          0                 2           2             1    2     1      -0.1360955804E-03       2    1    1        -0.7158251984E-02      0.1182128064E-01
          0                 3           1             1    2     1       0.9267603220E-05       2    1    1         0.5010777745E-03      0.8274903320E-03

    ------------------------------------------------
       NWT REQUIRED            3 OUTER ITERATIONS 
       AND A TOTAL OF          5 INNER ITERATIONS.
    ------------------------------------------------

 NO OUTPUT CONTROL FOR STRESS PERIOD   48   TIME STEP   15
 
 SOLVING FOR HEAD 
                                                   Max.-Head-Change                         Max.-Flux-Residual
  Residual-Control   Outer-Iter.   Inner-Iter.     Column Row Layer    Maximum-Head-Change  Column Row Layer    Maximum-Flux-Residual          L2-NORM 
          0                 1           2             1    2     1       0.1396281341E-02       2    1    1         0.7135987308E-01      0.1174849707E+00
          0                 2           2             1    2     1      -0.1358201865E-03       2    1    1        -0.7135994544E-02      0.1174850388E-01
          0                 3           1             1    2     1       0.9248850176E-05       2    1    1         0.4995197680E-03      0.8223961472E-03

    ------------------------------------------------
       NWT REQUIRED            3 OUTER ITERATIONS 
       AND A TOTAL OF          5 INNER ITERATIONS.
    ------------------------------------------------

 NO OUTPUT CONTROL FOR STRESS PERIOD   48   TIME STEP   16
 
 SOLVING FOR HEAD 
                                                   Max.-Head-Change                         Max.-Flux-Residual
  Residual-Control   Outer-Iter.   Inner-Iter.     Column Row Layer    Maximum-Head-Change  Column Row Layer    Maximum-Flux-Residual          L2-NORM 
          0                 1           2             1    2     1       0.1393420143E-02       2    1    1         0.7113972398E-01      0.1167731262E+00
          0                 2           2             1    2     1      -0.1355418692E-03       2    1    1        -0.7113979602E-02      0.1167731914E-01
          0                 3           1             1    2     1       0.9229897617E-05       2    1    1         0.4979787063E-03      0.8174129632E-03

    ------------------------------------------------
       NWT REQUIRED            3 OUTER ITERATIONS 
       AND A TOTAL OF          5 INNER ITERATIONS.
    ------------------------------------------------

 NO OUTPUT CONTROL FOR STRESS PERIOD   48   TIME STEP   17
 
 SOLVING FOR HEAD 
                                                   Max.-Head-Change                         Max.-Flux-Residual
  Residual-Control   Outer-Iter.   Inner-Iter.     Column Row Layer    Maximum-Head-Change  Column Row Layer    Maximum-Flux-Residual          L2-NORM 
          0                 1           2             1    2     1       0.1390617393E-02       2    1    1         0.7091966806E-01      0.1160720913E+00
          0                 2           2             1    2     1      -0.1352692374E-03       2    1    1        -0.7091973941E-02      0.1160721635E-01
          0                 3           1             1    2     1       0.9211332493E-05       2    1    1         0.4964383245E-03      0.8125053093E-03

    ------------------------------------------------
       NWT REQUIRED            3 OUTER ITERATIONS 
       AND A TOTAL OF          5 INNER ITERATIONS.
    ------------------------------------------------

 NO OUTPUT CONTROL FOR STRESS PERIOD   48   TIME STEP   18
 
 SOLVING FOR HEAD 
                                                   Max.-Head-Change                         Max.-Flux-Residual
  Residual-Control   Outer-Iter.   Inner-Iter.     Column Row Layer    Maximum-Head-Change  Column Row Layer    Maximum-Flux-Residual          L2-NORM 
          0                 1           2             1    2     1       0.1387784329E-02       2    1    1         0.7070086059E-01      0.1153908178E+00
          0                 2           2             1    2     1      -0.1349936567E-03       2    1    1        -0.7070093149E-02      0.1153908844E-01
          0                 3           1             1    2     1       0.9192566432E-05       2    1    1         0.4949066667E-03      0.8077367914E-03

    ------------------------------------------------
       NWT REQUIRED            3 OUTER ITERATIONS 
       AND A TOTAL OF          5 INNER ITERATIONS.
    ------------------------------------------------

 NO OUTPUT CONTROL FOR STRESS PERIOD   48   TIME STEP   19
 
 SOLVING FOR HEAD 
                                                   Max.-Head-Change                         Max.-Flux-Residual
  Residual-Control   Outer-Iter.   Inner-Iter.     Column Row Layer    Maximum-Head-Change  Column Row Layer    Maximum-Flux-Residual          L2-NORM 
          0                 1           2             1    2     1       0.1384965144E-02       2    1    1         0.7048328490E-01      0.1147195868E+00
          0                 2           2             1    2     1      -0.1347194267E-03       2    1    1        -0.7048335530E-02      0.1147196492E-01
          0                 3           1             1    2     1       0.9173892438E-05       2    1    1         0.4933836554E-03      0.8030374802E-03

    ------------------------------------------------
       NWT REQUIRED            3 OUTER ITERATIONS 
       AND A TOTAL OF          5 INNER ITERATIONS.
    ------------------------------------------------

 NO OUTPUT CONTROL FOR STRESS PERIOD   48   TIME STEP   20
 
 SOLVING FOR HEAD 
                                                   Max.-Head-Change                         Max.-Flux-Residual
  Residual-Control   Outer-Iter.   Inner-Iter.     Column Row Layer    Maximum-Head-Change  Column Row Layer    Maximum-Flux-Residual          L2-NORM 
          0                 1           2             1    2     1       0.1382204025E-02       2    1    1         0.7026692983E-01      0.1140529662E+00
          0                 2           2             1    2     1      -0.1344508447E-03       2    1    1        -0.7026699959E-02      0.1140530359E-01
          0                 3           1             1    2     1       0.9155603037E-05       2    1    1         0.4918691438E-03      0.7983715131E-03

    ------------------------------------------------
       NWT REQUIRED            3 OUTER ITERATIONS 
       AND A TOTAL OF          5 INNER ITERATIONS.
    ------------------------------------------------

 NO OUTPUT CONTROL FOR STRESS PERIOD   48   TIME STEP   21
 
 SOLVING FOR HEAD 
                                                   Max.-Head-Change                         Max.-Flux-Residual
  Residual-Control   Outer-Iter.   Inner-Iter.     Column Row Layer    Maximum-Head-Change  Column Row Layer    Maximum-Flux-Residual          L2-NORM 
          0                 1           2             1    2     1       0.1379412204E-02       2    1    1         0.7005178971E-01      0.1134054672E+00
          0                 2           2             1    2     1      -0.1341792765E-03       2    1    1        -0.7005185891E-02      0.1134055377E-01
          0                 3           1             1    2     1       0.9137110335E-05       2    1    1         0.4903631481E-03      0.7938387806E-03

    ------------------------------------------------
       NWT REQUIRED            3 OUTER ITERATIONS 
       AND A TOTAL OF          5 INNER ITERATIONS.
    ------------------------------------------------

 NO OUTPUT CONTROL FOR STRESS PERIOD   48   TIME STEP   22
 
 SOLVING FOR HEAD 
                                                   Max.-Head-Change                         Max.-Flux-Residual
  Residual-Control   Outer-Iter.   Inner-Iter.     Column Row Layer    Maximum-Head-Change  Column Row Layer    Maximum-Flux-Residual          L2-NORM 
          0                 1           2             1    2     1       0.1376633886E-02       2    1    1         0.6983784827E-01      0.1127715027E+00
          0                 2           2             1    2     1      -0.1339090212E-03       2    1    1        -0.6983791716E-02      0.1127715453E-01
          0                 3           1             1    2     1       0.9118706858E-05       2    1    1         0.4888655724E-03      0.7894012507E-03

    ------------------------------------------------
       NWT REQUIRED            3 OUTER ITERATIONS 
       AND A TOTAL OF          5 INNER ITERATIONS.
    ------------------------------------------------

 NO OUTPUT CONTROL FOR STRESS PERIOD   48   TIME STEP   23
 
 SOLVING FOR HEAD 
                                                   Max.-Head-Change                         Max.-Flux-Residual
  Residual-Control   Outer-Iter.   Inner-Iter.     Column Row Layer    Maximum-Head-Change  Column Row Layer    Maximum-Flux-Residual          L2-NORM 
          0                 1           2             1    2     1       0.1373869016E-02       2    1    1         0.6962509480E-01      0.1121432846E+00
          0                 2           2             1    2     1      -0.1336400740E-03       2    1    1        -0.6962516295E-02      0.1121433511E-01
          0                 3           1             1    2     1       0.9100392606E-05       2    1    1         0.4873762842E-03      0.7850123703E-03

    ------------------------------------------------
       NWT REQUIRED            3 OUTER ITERATIONS 
       AND A TOTAL OF          5 INNER ITERATIONS.
    ------------------------------------------------

 NO OUTPUT CONTROL FOR STRESS PERIOD   48   TIME STEP   24
 
 SOLVING FOR HEAD 
                                                   Max.-Head-Change                         Max.-Flux-Residual
  Residual-Control   Outer-Iter.   Inner-Iter.     Column Row Layer    Maximum-Head-Change  Column Row Layer    Maximum-Flux-Residual          L2-NORM 
          0                 1           2             1    2     1       0.1371161724E-02       2    1    1         0.6941352402E-01      0.1115248508E+00
          0                 2           2             1    2     1      -0.1333767278E-03       2    1    1        -0.6941359178E-02      0.1115249282E-01
          0                 3           1             1    2     1       0.9082459636E-05       2    1    1         0.4858952827E-03      0.7806756430E-03

    ------------------------------------------------
       NWT REQUIRED            3 OUTER ITERATIONS 
       AND A TOTAL OF          5 INNER ITERATIONS.
    ------------------------------------------------

 NO OUTPUT CONTROL FOR STRESS PERIOD   48   TIME STEP   25
 
 SOLVING FOR HEAD 
                                                   Max.-Head-Change                         Max.-Flux-Residual
  Residual-Control   Outer-Iter.   Inner-Iter.     Column Row Layer    Maximum-Head-Change  Column Row Layer    Maximum-Flux-Residual          L2-NORM 
          0                 1           2             1    2     1       0.1368423236E-02       2    1    1         0.6920312541E-01      0.1109208496E+00
          0                 2           2             1    2     1      -0.1331103471E-03       2    1    1        -0.6920319257E-02      0.1109209123E-01
          0                 3           1             1    2     1       0.9064319813E-05       2    1    1         0.4844224898E-03      0.7764462561E-03

    ------------------------------------------------
       NWT REQUIRED            3 OUTER ITERATIONS 
       AND A TOTAL OF          5 INNER ITERATIONS.
    ------------------------------------------------

 NO OUTPUT CONTROL FOR STRESS PERIOD   48   TIME STEP   26
 
 SOLVING FOR HEAD 
                                                   Max.-Head-Change                         Max.-Flux-Residual
  Residual-Control   Outer-Iter.   Inner-Iter.     Column Row Layer    Maximum-Head-Change  Column Row Layer    Maximum-Flux-Residual          L2-NORM 
          0                 1           2             1    2     1       0.1365697837E-02       2    1    1         0.6899388330E-01      0.1103297214E+00
          0                 2           2             1    2     1      -0.1328452398E-03       2    1    1        -0.6899395008E-02      0.1103297786E-01
          0                 3           1             1    2     1       0.9046267323E-05       2    1    1         0.4829577854E-03      0.7723111192E-03

    ------------------------------------------------
       NWT REQUIRED            3 OUTER ITERATIONS 
       AND A TOTAL OF          5 INNER ITERATIONS.
    ------------------------------------------------

 NO OUTPUT CONTROL FOR STRESS PERIOD   48   TIME STEP   27
 
 SOLVING FOR HEAD 
                                                   Max.-Head-Change                         Max.-Flux-Residual
  Residual-Control   Outer-Iter.   Inner-Iter.     Column Row Layer    Maximum-Head-Change  Column Row Layer    Maximum-Flux-Residual          L2-NORM 
          0                 1           2             1    2     1       0.1362985412E-02       2    1    1         0.6878579279E-01      0.1097412592E+00
          0                 2           2             1    2     1      -0.1325813944E-03       2    1    1        -0.6878585900E-02      0.1097413193E-01
          0                 3           1             1    2     1       0.9028300508E-05       2    1    1         0.4815011414E-03      0.7681962766E-03

    ------------------------------------------------
       NWT REQUIRED            3 OUTER ITERATIONS 
       AND A TOTAL OF          5 INNER ITERATIONS.
    ------------------------------------------------

 NO OUTPUT CONTROL FOR STRESS PERIOD   48   TIME STEP   28
 
 SOLVING FOR HEAD 
                                                   Max.-Head-Change                         Max.-Flux-Residual
  Residual-Control   Outer-Iter.   Inner-Iter.     Column Row Layer    Maximum-Head-Change  Column Row Layer    Maximum-Flux-Residual          L2-NORM 
          0                 1           2             1    2     1       0.1360285845E-02       2    1    1         0.6857884376E-01      0.1091717768E+00
          0                 2           2             1    2     1      -0.1323188002E-03       2    1    1        -0.6857890949E-02      0.1091722767E-01
          0                 3           1             1    2     1       0.9010418895E-05       2    1    1         0.4800525050E-03      0.7642063225E-03

    ------------------------------------------------
       NWT REQUIRED            3 OUTER ITERATIONS 
       AND A TOTAL OF          5 INNER ITERATIONS.
    ------------------------------------------------

 NO OUTPUT CONTROL FOR STRESS PERIOD   48   TIME STEP   29
 
 SOLVING FOR HEAD 
                                                   Max.-Head-Change                         Max.-Flux-Residual
  Residual-Control   Outer-Iter.   Inner-Iter.     Column Row Layer    Maximum-Head-Change  Column Row Layer    Maximum-Flux-Residual          L2-NORM 
          0                 1           2             1    2     1       0.1357599023E-02       2    1    1         0.6837302624E-01      0.1086086082E+00
          0                 2           2             1    2     1      -0.1320574446E-03       2    1    1        -0.6837309144E-02      0.1086086622E-01
          0                 3           1             1    2     1       0.8992621302E-05       2    1    1         0.4786117968E-03      0.7602657938E-03

    ------------------------------------------------
       NWT REQUIRED            3 OUTER ITERATIONS 
       AND A TOTAL OF          5 INNER ITERATIONS.
    ------------------------------------------------

 NO OUTPUT CONTROL FOR STRESS PERIOD   48   TIME STEP   30



 STREAM LISTING     PERIOD     48   STEP       30

 LAYER ROW COL. STREAM  RCH.  FLOW INTO     FLOW TO   FLOW OUT OF   OVRLND.     DIRECT     STREAM       STREAM     STREAM     STREAM   STREAMBED  STREAMBED
                SEG.NO.  NO.  STRM. RCH.    AQUIFER    STRM. RCH.    RUNOFF     PRECIP       ET          HEAD       DEPTH      WIDTH   CONDCTNC.   GRADIENT

   1    1    1     1     1    1.5750E+01  1.9239E-01   1.5557E+01  0.000E+00  0.000E+00  0.000E+00  1.09407E+03  1.025E+00  1.062E+01  4.780E-02  1.342E+00
   1    2    2     1     2    1.5557E+01  2.9659E-01   1.5261E+01  0.000E+00  0.000E+00  0.000E+00  1.08908E+03  1.020E+00  1.054E+01  7.378E-02  1.340E+00
   1    3    3     1     3    1.5261E+01  2.5163E-01   1.5009E+01  0.000E+00  0.000E+00  0.000E+00  1.08343E+03  1.015E+00  1.045E+01  6.268E-02  1.338E+00
   1    3    4     1     4    1.5009E+01  2.3063E-01   1.4778E+01  0.000E+00  0.000E+00  0.000E+00  1.07842E+03  1.010E+00  1.036E+01  5.751E-02  1.337E+00
   1    4    5     2     1    1.2778E+01  2.9653E-01   1.2482E+01  0.000E+00  0.000E+00  0.000E+00  1.07274E+03  8.017E-01  1.200E+01  7.800E-02  1.267E+00
   1    5    6     2     2    1.2482E+01  2.2750E-01   1.2254E+01  0.000E+00  0.000E+00  0.000E+00  1.06730E+03  7.916E-01  1.200E+01  6.000E-02  1.264E+00
   1    6    6     2     3    1.2254E+01  2.2697E-01   1.2027E+01  0.000E+00  0.000E+00  0.000E+00  1.06258E+03  7.829E-01  1.200E+01  6.000E-02  1.261E+00
   1    7    6     2     4    1.2027E+01  2.2644E-01   1.1801E+01  0.000E+00  0.000E+00  0.000E+00  1.05785E+03  7.741E-01  1.200E+01  6.000E-02  1.258E+00
   1    8    6     2     5    1.1801E+01  2.2591E-01   1.1575E+01  0.000E+00  0.000E+00  0.000E+00  1.05312E+03  7.652E-01  1.200E+01  6.000E-02  1.255E+00
   1    3    5     3     1    2.0000E+00  2.8252E-01   1.7175E+00  0.000E+00  0.000E+00  0.000E+00  1.07555E+03  1.909E+00  9.636E+00  7.227E-02  1.955E+00
   1    3    6     3     2    1.7175E+00  2.4905E-01   1.4684E+00  0.000E+00  0.000E+00  0.000E+00  1.07264E+03  1.727E+00  8.909E+00  6.682E-02  1.864E+00
   1    3    7     3     3    1.4684E+00  1.9718E-01   1.2712E+00  0.000E+00  0.000E+00  0.000E+00  1.06987E+03  1.555E+00  8.218E+00  5.547E-02  1.777E+00
   1    4    8     3     4    1.2712E+00  2.2567E-01   1.0456E+00  0.000E+00  0.000E+00  0.000E+00  1.06682E+03  1.364E+00  7.455E+00  6.709E-02  1.682E+00
   1    5    8     3     5    1.0456E+00  1.5790E-01   8.8768E-01  0.000E+00  0.000E+00  0.000E+00  1.06362E+03  1.164E+00  6.655E+00  4.991E-02  1.582E+00
   1    6    8     3     6    8.8768E-01  5.5980E-02   8.3170E-01  0.000E+00  0.000E+00  0.000E+00  1.06158E+03  1.036E+00  6.145E+00  1.844E-02  1.518E+00
   1    5   10     4     1    1.0000E+01  9.0919E-02   9.9091E+00  0.000E+00  0.000E+00  0.000E+00  1.07836E+03  6.368E-01  1.000E+01  2.500E-02  1.212E+00
   1    5    9     4     2    9.9091E+00  1.8158E-01   9.7275E+00  0.000E+00  0.000E+00  0.000E+00  1.07154E+03  6.315E-01  1.000E+01  5.000E-02  1.211E+00
   1    6    8     4     3    9.7275E+00  1.2689E-01   9.6006E+00  0.000E+00  0.000E+00  0.000E+00  1.06381E+03  6.256E-01  1.000E+01  3.500E-02  1.209E+00
   1    6    8     5     1    1.0432E+01  2.2686E-01   1.0205E+01  0.000E+00  0.000E+00  0.000E+00  1.05868E+03  6.790E-01  1.542E+01  6.166E-02  1.226E+00
   1    7    7     5     2    1.0205E+01  2.7894E-01   9.9265E+00  0.000E+00  0.000E+00  0.000E+00  1.05417E+03  6.732E-01  1.519E+01  7.594E-02  1.224E+00
   1    8    7     5     3    9.9265E+00  1.9221E-01   9.7343E+00  0.000E+00  0.000E+00  0.000E+00  1.04992E+03  6.676E-01  1.497E+01  5.241E-02  1.223E+00
   1    8    6     5     4    9.7343E+00  1.3577E-01   9.5985E+00  0.000E+00  0.000E+00  0.000E+00  1.04691E+03  6.637E-01  1.482E+01  3.706E-02  1.221E+00
   1    9    6     6     1    9.5985E+00  2.2097E-01   9.3776E+00  0.000E+00  0.000E+00  0.000E+00  1.04341E+03  6.828E-01  1.200E+01  6.000E-02  1.228E+00
   1   10    7     6     2    9.3776E+00  2.2039E-01   9.1572E+00  0.000E+00  0.000E+00  0.000E+00  1.03885E+03  6.732E-01  1.200E+01  6.000E-02  1.224E+00
   1   11    7     6     3    9.1572E+00  2.1981E-01   8.9374E+00  0.000E+00  0.000E+00  0.000E+00  1.03430E+03  6.636E-01  1.200E+01  6.000E-02  1.221E+00
   1   12    7     6     4    8.9374E+00  2.1923E-01   8.7181E+00  0.000E+00  0.000E+00  0.000E+00  1.02974E+03  6.539E-01  1.200E+01  6.000E-02  1.218E+00
   1   13    7     6     5    8.7181E+00 -1.1052E-01   8.8287E+00  0.000E+00  0.000E+00  0.000E+00  1.02656E+03  6.514E-01  1.200E+01  2.400E-01 -1.535E-01
   1   14    9     7     1    1.5000E+02  1.3460E+00   1.4865E+02  0.000E+00  0.000E+00  0.000E+00  1.03987E+03  2.288E+00  5.529E+01  5.593E-01  8.022E-01
   1   13    8     7     2    1.4865E+02  1.8508E+00   1.4680E+02  0.000E+00  0.000E+00  0.000E+00  1.03478E+03  2.279E+00  5.526E+01  6.148E-01  1.003E+00
   1   13    7     7     3    1.4680E+02  1.4902E+00   1.4531E+02  0.000E+00  0.000E+00  0.000E+00  1.02969E+03  2.270E+00  5.522E+01  5.584E-01  8.895E-01
   1   13    6     8     1    1.5414E+02  8.4249E-01   1.5330E+02  0.000E+00  0.000E+00  0.000E+00  1.02472E+03  2.843E+00  4.122E+01  4.201E-01  6.686E-01
   1   13    5     8     2    1.5330E+02  1.1213E-01   1.5319E+02  0.000E+00  0.000E+00  0.000E+00  1.01846E+03  2.840E+00  4.117E+01  4.196E-01  8.908E-02
   1   13    4     8     3    1.5319E+02 -2.6404E+00   1.5583E+02  0.000E+00  0.000E+00  0.000E+00  1.01222E+03  2.848E+00  4.130E+01  4.209E+00 -2.091E-01
   1   13    3     8     4    1.5583E+02 -3.7261E+00   1.5955E+02  0.000E+00  0.000E+00  0.000E+00  1.00600E+03  2.870E+00  4.162E+01  4.241E+00 -2.929E-01
   1   13    2     8     5    1.5955E+02 -2.5920E+00   1.6215E+02  0.000E+00  0.000E+00  0.000E+00  9.99767E+02  2.892E+00  4.193E+01  4.273E+00 -2.022E-01
   1   13    1     8     6    1.6215E+02 -1.9791E+00   1.6412E+02  0.000E+00  0.000E+00  0.000E+00  9.94782E+02  2.907E+00  4.215E+01  2.577E+00 -2.560E-01
   1    8    6     9     1    1.1575E+01  0.0000E+00   1.1575E+01  0.000E+00  0.000E+00  0.000E+00  1.08122E+03  2.474E+00  4.000E+00  0.000E+00  1.825E+00
   1    8    5     9     2    1.1575E+01  0.0000E+00   1.1575E+01  0.000E+00  0.000E+00  0.000E+00  1.08072E+03  2.474E+00  4.000E+00  0.000E+00  1.825E+00





UNSATURATED ZONE PACKAGE VOLUMETRIC BUDGET FOR  TIME STEP    30 STRESS PERIOD   48
  ------------------------------------------------------------------------------



     CUMULATIVE VOLUMES      L**3       RATES FOR THIS TIME STEP      L**3/T
     ------------------                 ------------------------

           IN:                                      IN:
           ---                                      ---
        INFILTRATION =   104832693.0189          INFILTRATION =           0.8475

          OUT:                                     OUT:
          ----                                     ----
              UZF ET =   103751253.0437                UZF ET =           0.7500
        UZF RECHARGE =       73224.0000          UZF RECHARGE =       0.0000E+00

            IN - OUT =     1008215.9752              IN - OUT =       9.7500E-02

          STORAGE:                                 STORAGE:
          --------                                 --------
      STORAGE CHANGE =     1008216.3691        STORAGE CHANGE =       9.7500E-02

 PERCENT DISCREPANCY IS DIFFERENCE BETWEEN IN-OUT MINUS CHANGE IN STORAGE
 DIVIDED BY THE AVERAGE OF IN AND OUT TIMES 100

 PERCENT DISCREPANCY =           0.00     PERCENT DISCREPANCY =           0.00






1
  VOLUMETRIC BUDGET FOR ENTIRE MODEL AT END OF TIME STEP   30, STRESS PERIOD  48
  ------------------------------------------------------------------------------

     CUMULATIVE VOLUMES      L**3       RATES FOR THIS TIME STEP      L**3/T
     ------------------                 ------------------------

           IN:                                      IN:
           ---                                      ---
             STORAGE     =    33950528.0000               STORAGE     =           0.2163
       CONSTANT HEAD     =           0.0000         CONSTANT HEAD     =           0.0000
     HEAD DEP BOUNDS     =    35403048.0000       HEAD DEP BOUNDS     =           0.2865
      STREAM LEAKAGE     =  1448147200.0000        STREAM LEAKAGE     =          11.0981
        UZF RECHARGE     =       73223.9531          UZF RECHARGE     =           0.0000
               GW ET     =           0.0000                 GW ET     =           0.0000
     SURFACE LEAKAGE     =           0.0000       SURFACE LEAKAGE     =           0.0000

                TOTAL IN =  1517574016.0000                  TOTAL IN =          11.6008

          OUT:                                     OUT:
          ----                                     ----
             STORAGE     =   113299432.0000               STORAGE     =           0.2659
       CONSTANT HEAD     =           0.0000         CONSTANT HEAD     =           0.0000
     HEAD DEP BOUNDS     =    35490556.0000       HEAD DEP BOUNDS     =           0.2869
      STREAM LEAKAGE     =  1368804096.0000        STREAM LEAKAGE     =          11.0480
        UZF RECHARGE     =           0.0000          UZF RECHARGE     =           0.0000
               GW ET     =           0.0000                 GW ET     =           0.0000
     SURFACE LEAKAGE     =           0.0000       SURFACE LEAKAGE     =           0.0000

               TOTAL OUT =  1517594112.0000                 TOTAL OUT =          11.6008

                IN - OUT =      -20096.0000                  IN - OUT =      -1.0490E-05

     PERCENT DISCREPANCY =          -0.00         PERCENT DISCREPANCY =          -0.00






         TIME SUMMARY AT END OF TIME STEP   30 IN STRESS PERIOD   48
                    SECONDS     MINUTES      HOURS       DAYS        YEARS
                    -----------------------------------------------------------
   TIME STEP LENGTH  87667.      1461.1      24.352      1.0147     2.77799E-03
 STRESS PERIOD TIME 2.63000E+06  43833.      730.56      30.440     8.33397E-02
         TOTAL TIME 1.23695E+08 2.06158E+06  34360.      1431.7      3.9197    
1
1
                            STRESS PERIOD NO.   49, LENGTH =   2630000.    
                            -----------------------------------------------

                              NUMBER OF TIME STEPS =    30

                               MULTIPLIER FOR DELT =     1.000

                            INITIAL TIME STEP SIZE =   87666.66    

 REUSING NON-PARAMETER GHB CELLS FROM LAST STRESS PERIOD

      2 GHB CELLS

 REUSING STREAM SEGMENT DATA FROM LAST STRESS PERIOD



            AREAL INFILTRATION RATE
 READING ON UNIT   19 WITH FORMAT: (FREE)              

            1           2           3           4           5           6           7           8           9          10
 ........................................................................................................................
   1   1.0000E-10  2.0000E-10   0.000       0.000       0.000       0.000       0.000       0.000       0.000       0.000    
   2   2.0000E-10  1.0000E-10  2.0000E-10   0.000       0.000      8.0000E-10  8.0000E-10  5.0000E-10   0.000       0.000    
   3    0.000      5.0000E-10  1.0000E-10  1.0000E-10  8.0000E-10  8.0000E-10  5.0000E-10  5.0000E-10   0.000       0.000    
   4   8.0000E-10  5.0000E-10  1.0000E-10  1.0000E-10  1.0000E-10  1.0000E-10  1.0000E-10  1.0000E-10  2.0000E-10   0.000    
   5   8.0000E-10  5.0000E-10  1.0000E-10  1.0000E-10  1.0000E-10  1.0000E-10  1.0000E-10  1.0000E-10  1.0000E-10  1.0000E-10
   6   8.0000E-10  5.0000E-10  5.0000E-10  2.0000E-10  2.0000E-10  1.0000E-10  1.0000E-10  1.0000E-10  1.0000E-10  5.0000E-10
   7   8.0000E-10  5.0000E-10  5.0000E-10  2.0000E-10  2.0000E-10  1.0000E-10  1.0000E-10  2.0000E-10  2.0000E-10   0.000    
   8    0.000      5.0000E-10  5.0000E-10  2.0000E-10  2.0000E-10  1.0000E-10  1.0000E-10  2.0000E-10  5.0000E-10   0.000    
   9    0.000      5.0000E-10  5.0000E-10  2.0000E-10  2.0000E-10  1.0000E-10  1.0000E-10  2.0000E-10  5.0000E-10   0.000    
  10    0.000      5.0000E-10  5.0000E-10  2.0000E-10  2.0000E-10  1.0000E-10  1.0000E-10  2.0000E-10  5.0000E-10  8.0000E-10
  11    0.000      1.0000E-10  1.0000E-10  1.0000E-10  1.0000E-10  1.0000E-10  1.0000E-10  2.0000E-10  5.0000E-10   0.000    
  12   1.0000E-10  1.0000E-10  1.0000E-10  1.0000E-10  1.0000E-10  1.0000E-10  1.0000E-10  1.0000E-10  2.0000E-10   0.000    
  13   1.0000E-10  1.0000E-10  2.0000E-10  2.0000E-10  2.0000E-10  2.0000E-10  2.0000E-10  1.0000E-10  1.0000E-10   0.000    
  14    0.000      2.0000E-10  5.0000E-10  5.0000E-10  5.0000E-10  5.0000E-10  5.0000E-10  2.0000E-10  1.0000E-10   0.000    
  15    0.000       0.000      8.0000E-10  8.0000E-10  8.0000E-10  8.0000E-10   0.000       0.000       0.000       0.000    

                  ET RATE =  5.000000E-10

 USING ET EXTINCTION DEPTH FROM PREVIOUS STRESS PERIOD. CURRENT PERIOD IS:      49

 USING EXTINCTION WATER CONTENT FROM PREVIOUS STRESS PERIOD. CURRENT PERIOD IS:      49

 USING AIR ENTRY PRESSURE FROM PREVIOUS STRESS PERIOD. CURRENT PERIOD IS:      49

 USING ROOT PRESSURE HEAD FROM PREVIOUS STRESS PERIOD. CURRENT PERIOD IS:      49

 USING ROOT ACTIVITY FROM PREVIOUS STRESS PERIOD. CURRENT PERIOD IS:      49
 
 SOLVING FOR HEAD 
                                                   Max.-Head-Change                         Max.-Flux-Residual
  Residual-Control   Outer-Iter.   Inner-Iter.     Column Row Layer    Maximum-Head-Change  Column Row Layer    Maximum-Flux-Residual          L2-NORM 
          0                 1           2             1    2     1       0.1354969093E-02       2    1    1         0.6816717131E-01      0.1080482879E+00
          0                 2           2             1    2     1      -0.1318016242E-03       2    1    1        -0.6816723605E-02      0.1080483418E-01
          0                 3           1             1    2     1       0.8975200966E-05       2    1    1         0.4771707984E-03      0.7563378761E-03

    ------------------------------------------------
       NWT REQUIRED            3 OUTER ITERATIONS 
       AND A TOTAL OF          5 INNER ITERATIONS.
    ------------------------------------------------

 NO OUTPUT CONTROL FOR STRESS PERIOD   49   TIME STEP    1
 
 SOLVING FOR HEAD 
                                                   Max.-Head-Change                         Max.-Flux-Residual
  Residual-Control   Outer-Iter.   Inner-Iter.     Column Row Layer    Maximum-Head-Change  Column Row Layer    Maximum-Flux-Residual          L2-NORM 
          0                 1           2             1    2     1       0.1352307340E-02       2    1    1         0.6796359031E-01      0.1075005188E+00
          0                 2           2             1    2     1      -0.1315427073E-03       2    1    1        -0.6796365464E-02      0.1075005979E-01
          0                 3           1             1    2     1       0.8957569754E-05       2    1    1         0.4757457224E-03      0.7525038057E-03

    ------------------------------------------------
       NWT REQUIRED            3 OUTER ITERATIONS 
       AND A TOTAL OF          5 INNER ITERATIONS.
    ------------------------------------------------

 NO OUTPUT CONTROL FOR STRESS PERIOD   49   TIME STEP    2
 
 SOLVING FOR HEAD 
                                                   Max.-Head-Change                         Max.-Flux-Residual
  Residual-Control   Outer-Iter.   Inner-Iter.     Column Row Layer    Maximum-Head-Change  Column Row Layer    Maximum-Flux-Residual          L2-NORM 
          0                 1           2             1    2     1       0.1349657999E-02       2    1    1         0.6776111159E-01      0.1069659531E+00
          0                 2           2             1    2     1      -0.1312849987E-03       2    1    1        -0.6776117536E-02      0.1069660082E-01
          0                 3           1             1    2     1       0.8940020904E-05       2    1    1         0.4743283683E-03      0.7487626350E-03

    ------------------------------------------------
       NWT REQUIRED            3 OUTER ITERATIONS 
       AND A TOTAL OF          5 INNER ITERATIONS.
    ------------------------------------------------

 NO OUTPUT CONTROL FOR STRESS PERIOD   49   TIME STEP    3
 
 SOLVING FOR HEAD 
                                                   Max.-Head-Change                         Max.-Flux-Residual
  Residual-Control   Outer-Iter.   Inner-Iter.     Column Row Layer    Maximum-Head-Change  Column Row Layer    Maximum-Flux-Residual          L2-NORM 
          0                 1           2             1    2     1       0.1346911890E-02       2    1    1         0.6755972566E-01      0.1105462147E+00
          0                 2           2             1    2     1      -0.1310178774E-03       2    1    1        -0.6755979014E-02      0.1105462726E-01
          0                 3           1             1    2     1       0.8921830906E-05       2    1    1         0.4729186827E-03      0.7738239397E-03

    ------------------------------------------------
       NWT REQUIRED            3 OUTER ITERATIONS 
       AND A TOTAL OF          5 INNER ITERATIONS.
    ------------------------------------------------

 NO OUTPUT CONTROL FOR STRESS PERIOD   49   TIME STEP    4
 
 SOLVING FOR HEAD 
                                                   Max.-Head-Change                         Max.-Flux-Residual
  Residual-Control   Outer-Iter.   Inner-Iter.     Column Row Layer    Maximum-Head-Change  Column Row Layer    Maximum-Flux-Residual          L2-NORM 
          0                 1           2             1    2     1       0.1344077787E-02       2    1    1         0.6734976985E-01      0.1140305970E+00
          0                 2           2             1    2     1      -0.1307421974E-03       2    1    1        -0.6734983465E-02      0.1140306506E-01
          0                 3           1             1    2     1       0.8903058219E-05       2    1    1         0.4714489959E-03      0.7982230633E-03

    ------------------------------------------------
       NWT REQUIRED            3 OUTER ITERATIONS 
       AND A TOTAL OF          5 INNER ITERATIONS.
    ------------------------------------------------

 NO OUTPUT CONTROL FOR STRESS PERIOD   49   TIME STEP    5
 
 SOLVING FOR HEAD 
                                                   Max.-Head-Change                         Max.-Flux-Residual
  Residual-Control   Outer-Iter.   Inner-Iter.     Column Row Layer    Maximum-Head-Change  Column Row Layer    Maximum-Flux-Residual          L2-NORM 
          0                 1           2             1    2     1       0.1341257246E-02       2    1    1         0.6713425630E-01      0.1133877006E+00
          0                 2           2             1    2     1      -0.1304678346E-03       2    1    1        -0.6713432054E-02      0.1133877658E-01
          0                 3           1             1    2     1       0.8884374758E-05       2    1    1         0.4699403801E-03      0.7937153098E-03

    ------------------------------------------------
       NWT REQUIRED            3 OUTER ITERATIONS 
       AND A TOTAL OF          5 INNER ITERATIONS.
    ------------------------------------------------

 NO OUTPUT CONTROL FOR STRESS PERIOD   49   TIME STEP    6
 
 SOLVING FOR HEAD 
                                                   Max.-Head-Change                         Max.-Flux-Residual
  Residual-Control   Outer-Iter.   Inner-Iter.     Column Row Layer    Maximum-Head-Change  Column Row Layer    Maximum-Flux-Residual          L2-NORM 
          0                 1           2             1    2     1       0.1338450156E-02       2    1    1         0.6691993556E-01      0.1127571316E+00
          0                 2           2             1    2     1      -0.1301947809E-03       2    1    1        -0.6691999907E-02      0.1127571991E-01
          0                 3           1             1    2     1       0.8865780759E-05       2    1    1         0.4684401299E-03      0.7893018192E-03

    ------------------------------------------------
       NWT REQUIRED            3 OUTER ITERATIONS 
       AND A TOTAL OF          5 INNER ITERATIONS.
    ------------------------------------------------

 NO OUTPUT CONTROL FOR STRESS PERIOD   49   TIME STEP    7
 
 SOLVING FOR HEAD 
                                                   Max.-Head-Change                         Max.-Flux-Residual
  Residual-Control   Outer-Iter.   Inner-Iter.     Column Row Layer    Maximum-Head-Change  Column Row Layer    Maximum-Flux-Residual          L2-NORM 
          0                 1           2             1    2     1       0.1335656419E-02       2    1    1         0.6670563619E-01      0.1121388859E+00
          0                 2           2             1    2     1      -0.1299230264E-03       2    1    1        -0.6670569950E-02      0.1121389319E-01
          0                 3           1             1    2     1       0.8847275512E-05       2    1    1         0.4669400453E-03      0.7849731610E-03

    ------------------------------------------------
       NWT REQUIRED            3 OUTER ITERATIONS 
       AND A TOTAL OF          5 INNER ITERATIONS.
    ------------------------------------------------

 NO OUTPUT CONTROL FOR STRESS PERIOD   49   TIME STEP    8
 
 SOLVING FOR HEAD 
                                                   Max.-Head-Change                         Max.-Flux-Residual
  Residual-Control   Outer-Iter.   Inner-Iter.     Column Row Layer    Maximum-Head-Change  Column Row Layer    Maximum-Flux-Residual          L2-NORM 
          0                 1           2             1    2     1       0.1332875895E-02       2    1    1         0.6649367109E-01      0.1115287458E+00
          0                 2           2             1    2     1      -0.1296525567E-03       2    1    1        -0.6649373385E-02      0.1115288227E-01
          0                 3           1             1    2     1       0.8828857598E-05       2    1    1         0.4654562951E-03      0.7807031189E-03

    ------------------------------------------------
       NWT REQUIRED            3 OUTER ITERATIONS 
       AND A TOTAL OF          5 INNER ITERATIONS.
    ------------------------------------------------

 NO OUTPUT CONTROL FOR STRESS PERIOD   49   TIME STEP    9
 
 SOLVING FOR HEAD 
                                                   Max.-Head-Change                         Max.-Flux-Residual
  Residual-Control   Outer-Iter.   Inner-Iter.     Column Row Layer    Maximum-Head-Change  Column Row Layer    Maximum-Flux-Residual          L2-NORM 
          0                 1           2             1    2     1       0.1330108557E-02       2    1    1         0.6628170672E-01      0.1109310174E+00
          0                 2           2             1    2     1      -0.1293833696E-03       2    1    1        -0.6628176912E-02      0.1109310823E-01
          0                 3           1             1    2     1       0.8810526544E-05       2    1    1         0.4639725403E-03      0.7765193841E-03

    ------------------------------------------------
       NWT REQUIRED            3 OUTER ITERATIONS 
       AND A TOTAL OF          5 INNER ITERATIONS.
    ------------------------------------------------

 NO OUTPUT CONTROL FOR STRESS PERIOD   49   TIME STEP   10
 
 SOLVING FOR HEAD 
                                                   Max.-Head-Change                         Max.-Flux-Residual
  Residual-Control   Outer-Iter.   Inner-Iter.     Column Row Layer    Maximum-Head-Change  Column Row Layer    Maximum-Flux-Residual          L2-NORM 
          0                 1           2             1    2     1       0.1327354201E-02       2    1    1         0.6607206170E-01      0.1103467957E+00
          0                 2           2             1    2     1      -0.1291154452E-03       2    1    1        -0.6607212346E-02      0.1103468278E-01
          0                 3           1             1    2     1       0.8792281874E-05       2    1    1         0.4625049988E-03      0.7724281465E-03

    ------------------------------------------------
       NWT REQUIRED            3 OUTER ITERATIONS 
       AND A TOTAL OF          5 INNER ITERATIONS.
    ------------------------------------------------

 NO OUTPUT CONTROL FOR STRESS PERIOD   49   TIME STEP   11
 
 SOLVING FOR HEAD 
                                                   Max.-Head-Change                         Max.-Flux-Residual
  Residual-Control   Outer-Iter.   Inner-Iter.     Column Row Layer    Maximum-Head-Change  Column Row Layer    Maximum-Flux-Residual          L2-NORM 
          0                 1           2             1    2     1       0.1324568456E-02       2    1    1         0.6586239721E-01      0.1097681407E+00
          0                 2           2             1    2     1      -0.1288444683E-03       2    1    1        -0.6586245865E-02      0.1097682112E-01
          0                 3           1             1    2     1       0.8773829406E-05       2    1    1         0.4610373465E-03      0.7683773188E-03

    ------------------------------------------------
       NWT REQUIRED            3 OUTER ITERATIONS 
       AND A TOTAL OF          5 INNER ITERATIONS.
    ------------------------------------------------

 NO OUTPUT CONTROL FOR STRESS PERIOD   49   TIME STEP   12
 
 SOLVING FOR HEAD 
                                                   Max.-Head-Change                         Max.-Flux-Residual
  Residual-Control   Outer-Iter.   Inner-Iter.     Column Row Layer    Maximum-Head-Change  Column Row Layer    Maximum-Flux-Residual          L2-NORM 
          0                 1           2             1    2     1       0.1321839899E-02       2    1    1         0.6565502694E-01      0.1092053023E+00
          0                 2           2             1    2     1      -0.1285790534E-03       2    1    1        -0.6565508772E-02      0.1092053343E-01
          0                 3           1             1    2     1       0.8755755852E-05       2    1    1         0.4595857476E-03      0.7644355901E-03

    ------------------------------------------------
       NWT REQUIRED            3 OUTER ITERATIONS 
       AND A TOTAL OF          5 INNER ITERATIONS.
    ------------------------------------------------

 NO OUTPUT CONTROL FOR STRESS PERIOD   49   TIME STEP   13
 
 SOLVING FOR HEAD 
                                                   Max.-Head-Change                         Max.-Flux-Residual
  Residual-Control   Outer-Iter.   Inner-Iter.     Column Row Layer    Maximum-Head-Change  Column Row Layer    Maximum-Flux-Residual          L2-NORM 
          0                 1           2             1    2     1       0.1319124077E-02       2    1    1         0.6544762289E-01      0.1086449878E+00
          0                 2           2             1    2     1      -0.1283148779E-03       2    1    1        -0.6544768338E-02      0.1086450370E-01
          0                 3           1             1    2     1       0.8737766553E-05       2    1    1         0.4581339389E-03      0.7605150573E-03

    ------------------------------------------------
       NWT REQUIRED            3 OUTER ITERATIONS 
       AND A TOTAL OF          5 INNER ITERATIONS.
    ------------------------------------------------

 NO OUTPUT CONTROL FOR STRESS PERIOD   49   TIME STEP   14
 
 SOLVING FOR HEAD 
                                                   Max.-Head-Change                         Max.-Flux-Residual
  Residual-Control   Outer-Iter.   Inner-Iter.     Column Row Layer    Maximum-Head-Change  Column Row Layer    Maximum-Flux-Residual          L2-NORM 
          0                 1           2             1    2     1       0.1316420790E-02       2    1    1         0.6524133948E-01      0.1081010966E+00
          0                 2           2             1    2     1      -0.1280519212E-03       2    1    1        -0.6524139948E-02      0.1081011487E-01
          0                 3           1             1    2     1       0.8719860327E-05       2    1    1         0.4566899316E-03      0.7567084312E-03

    ------------------------------------------------
       NWT REQUIRED            3 OUTER ITERATIONS 
       AND A TOTAL OF          5 INNER ITERATIONS.
    ------------------------------------------------

 NO OUTPUT CONTROL FOR STRESS PERIOD   49   TIME STEP   15
 
 SOLVING FOR HEAD 
                                                   Max.-Head-Change                         Max.-Flux-Residual
  Residual-Control   Outer-Iter.   Inner-Iter.     Column Row Layer    Maximum-Head-Change  Column Row Layer    Maximum-Flux-Residual          L2-NORM 
          0                 1           2             1    2     1       0.1313730021E-02       2    1    1         0.6503731995E-01      0.1075566940E+00
          0                 2           2             1    2     1      -0.1277901825E-03       2    1    1        -0.6503737953E-02      0.1075567553E-01
          0                 3           1             1    2     1       0.8702036699E-05       2    1    1         0.4552618092E-03      0.7528972478E-03

    ------------------------------------------------
       NWT REQUIRED            3 OUTER ITERATIONS 
       AND A TOTAL OF          5 INNER ITERATIONS.
    ------------------------------------------------

 NO OUTPUT CONTROL FOR STRESS PERIOD   49   TIME STEP   16
 
 SOLVING FOR HEAD 
                                                   Max.-Head-Change                         Max.-Flux-Residual
  Residual-Control   Outer-Iter.   Inner-Iter.     Column Row Layer    Maximum-Head-Change  Column Row Layer    Maximum-Flux-Residual          L2-NORM 
          0                 1           2             1    2     1       0.1311051643E-02       2    1    1         0.6483323953E-01      0.1070260260E+00
          0                 2           2             1    2     1      -0.1275296490E-03       2    1    1        -0.6483329848E-02      0.1070260753E-01
          0                 3           1             1    2     1       0.8684295671E-05       2    1    1         0.4538332377E-03      0.7491830765E-03

    ------------------------------------------------
       NWT REQUIRED            3 OUTER ITERATIONS 
       AND A TOTAL OF          5 INNER ITERATIONS.
    ------------------------------------------------

 NO OUTPUT CONTROL FOR STRESS PERIOD   49   TIME STEP   17
 
 SOLVING FOR HEAD 
                                                   Max.-Head-Change                         Max.-Flux-Residual
  Residual-Control   Outer-Iter.   Inner-Iter.     Column Row Layer    Maximum-Head-Change  Column Row Layer    Maximum-Flux-Residual          L2-NORM 
          0                 1           2             1    2     1       0.1308341213E-02       2    1    1         0.6463024999E-01      0.1065077897E+00
          0                 2           2             1    2     1      -0.1272659975E-03       2    1    1        -0.6463030872E-02      0.1065078507E-01
          0                 3           1             1    2     1       0.8666342110E-05       2    1    1         0.4524123073E-03      0.7455554662E-03

    ------------------------------------------------
       NWT REQUIRED            3 OUTER ITERATIONS 
       AND A TOTAL OF          5 INNER ITERATIONS.
    ------------------------------------------------

 NO OUTPUT CONTROL FOR STRESS PERIOD   49   TIME STEP   18
 
 SOLVING FOR HEAD 
                                                   Max.-Head-Change                         Max.-Flux-Residual
  Residual-Control   Outer-Iter.   Inner-Iter.     Column Row Layer    Maximum-Head-Change  Column Row Layer    Maximum-Flux-Residual          L2-NORM 
          0                 1           2             1    2     1       0.1305687358E-02       2    1    1         0.6442949821E-01      0.1059909705E+00
          0                 2           2             1    2     1      -0.1270078490E-03       2    1    1        -0.6442955656E-02      0.1059910241E-01
          0                 3           1             1    2     1       0.8648762729E-05       2    1    1         0.4510070478E-03      0.7419366434E-03

    ------------------------------------------------
       NWT REQUIRED            3 OUTER ITERATIONS 
       AND A TOTAL OF          5 INNER ITERATIONS.
    ------------------------------------------------

 NO OUTPUT CONTROL FOR STRESS PERIOD   49   TIME STEP   19
 
 SOLVING FOR HEAD 
                                                   Max.-Head-Change                         Max.-Flux-Residual
  Residual-Control   Outer-Iter.   Inner-Iter.     Column Row Layer    Maximum-Head-Change  Column Row Layer    Maximum-Flux-Residual          L2-NORM 
          0                 1           2             1    2     1       0.1303045582E-02       2    1    1         0.6422865793E-01      0.1054853175E+00
          0                 2           2             1    2     1      -0.1267508762E-03       2    1    1        -0.6422871567E-02      0.1054854102E-01
          0                 3           1             1    2     1       0.8631264054E-05       2    1    1         0.4496011358E-03      0.7383984623E-03

    ------------------------------------------------
       NWT REQUIRED            3 OUTER ITERATIONS 
       AND A TOTAL OF          5 INNER ITERATIONS.
    ------------------------------------------------

 NO OUTPUT CONTROL FOR STRESS PERIOD   49   TIME STEP   20
 
 SOLVING FOR HEAD 
                                                   Max.-Head-Change                         Max.-Flux-Residual
  Residual-Control   Outer-Iter.   Inner-Iter.     Column Row Layer    Maximum-Head-Change  Column Row Layer    Maximum-Flux-Residual          L2-NORM 
          0                 1           2             1    2     1       0.1300415803E-02       2    1    1         0.6402888137E-01      0.1049843244E+00
          0                 2           2             1    2     1      -0.1264950699E-03       2    1    1        -0.6402893858E-02      0.1049843920E-01
          0                 3           1             1    2     1       0.8613844428E-05       2    1    1         0.4482027017E-03      0.7348915144E-03

    ------------------------------------------------
       NWT REQUIRED            3 OUTER ITERATIONS 
       AND A TOTAL OF          5 INNER ITERATIONS.
    ------------------------------------------------

 NO OUTPUT CONTROL FOR STRESS PERIOD   49   TIME STEP   21
 
 SOLVING FOR HEAD 
                                                   Max.-Head-Change                         Max.-Flux-Residual
  Residual-Control   Outer-Iter.   Inner-Iter.     Column Row Layer    Maximum-Head-Change  Column Row Layer    Maximum-Flux-Residual          L2-NORM 
          0                 1           2             1    2     1       0.1297753627E-02       2    1    1         0.6383016127E-01      0.1044900001E+00
          0                 2           2             1    2     1      -0.1262361124E-03       2    1    1        -0.6383021834E-02      0.1044900633E-01
          0                 3           1             1    2     1       0.8596210376E-05       2    1    1         0.4468116679E-03      0.7314318930E-03

    ------------------------------------------------
       NWT REQUIRED            3 OUTER ITERATIONS 
       AND A TOTAL OF          5 INNER ITERATIONS.
    ------------------------------------------------

 NO OUTPUT CONTROL FOR STRESS PERIOD   49   TIME STEP   22
 
 SOLVING FOR HEAD 
                                                   Max.-Head-Change                         Max.-Flux-Residual
  Residual-Control   Outer-Iter.   Inner-Iter.     Column Row Layer    Maximum-Head-Change  Column Row Layer    Maximum-Flux-Residual          L2-NORM 
          0                 1           2             1    2     1       0.1295147609E-02       2    1    1         0.6363248886E-01      0.1040106311E+00
          0                 2           2             1    2     1      -0.1259826173E-03       2    1    1        -0.6363254536E-02      0.1040107062E-01
          0                 3           1             1    2     1       0.8578948137E-05       2    1    1         0.4454279570E-03      0.7280768932E-03

    ------------------------------------------------
       NWT REQUIRED            3 OUTER ITERATIONS 
       AND A TOTAL OF          5 INNER ITERATIONS.
    ------------------------------------------------

 NO OUTPUT CONTROL FOR STRESS PERIOD   49   TIME STEP   23
 
 SOLVING FOR HEAD 
                                                   Max.-Head-Change                         Max.-Flux-Residual
  Residual-Control   Outer-Iter.   Inner-Iter.     Column Row Layer    Maximum-Head-Change  Column Row Layer    Maximum-Flux-Residual          L2-NORM 
          0                 1           2             1    2     1       0.1292553291E-02       2    1    1         0.6343585393E-01      0.1035324495E+00
          0                 2           2             1    2     1      -0.1257302605E-03       2    1    1        -0.6343591003E-02      0.1035325106E-01
          0                 3           1             1    2     1       0.8561763764E-05       2    1    1         0.4440515171E-03      0.7247285329E-03

    ------------------------------------------------
       NWT REQUIRED            3 OUTER ITERATIONS 
       AND A TOTAL OF          5 INNER ITERATIONS.
    ------------------------------------------------

 NO OUTPUT CONTROL FOR STRESS PERIOD   49   TIME STEP   24
 
 SOLVING FOR HEAD 
                                                   Max.-Head-Change                         Max.-Flux-Residual
  Residual-Control   Outer-Iter.   Inner-Iter.     Column Row Layer    Maximum-Head-Change  Column Row Layer    Maximum-Flux-Residual          L2-NORM 
          0                 1           2             1    2     1       0.1289926278E-02       2    1    1         0.6324024952E-01      0.1030634875E+00
          0                 2           2             1    2     1      -0.1254747237E-03       2    1    1        -0.6324030531E-02      0.1030635301E-01
          0                 3           1             1    2     1       0.8544362835E-05       2    1    1         0.4426822646E-03      0.7214445405E-03

    ------------------------------------------------
       NWT REQUIRED            3 OUTER ITERATIONS 
       AND A TOTAL OF          5 INNER ITERATIONS.
    ------------------------------------------------

 NO OUTPUT CONTROL FOR STRESS PERIOD   49   TIME STEP   25
 
 SOLVING FOR HEAD 
                                                   Max.-Head-Change                         Max.-Flux-Residual
  Residual-Control   Outer-Iter.   Inner-Iter.     Column Row Layer    Maximum-Head-Change  Column Row Layer    Maximum-Flux-Residual          L2-NORM 
          0                 1           2             1    2     1       0.1287355205E-02       2    1    1         0.6304682727E-01      0.1026027206E+00
          0                 2           2             1    2     1      -0.1252246279E-03       2    1    1        -0.6304688275E-02      0.1026027886E-01
          0                 3           1             1    2     1       0.8527332064E-05       2    1    1         0.4413283041E-03      0.7182202772E-03

    ------------------------------------------------
       NWT REQUIRED            3 OUTER ITERATIONS 
       AND A TOTAL OF          5 INNER ITERATIONS.
    ------------------------------------------------

 NO OUTPUT CONTROL FOR STRESS PERIOD   49   TIME STEP   26
 
 SOLVING FOR HEAD 
                                                   Max.-Head-Change                         Max.-Flux-Residual
  Residual-Control   Outer-Iter.   Inner-Iter.     Column Row Layer    Maximum-Head-Change  Column Row Layer    Maximum-Flux-Residual          L2-NORM 
          0                 1           2             2    2     1      -0.3576701747E-02       2    2    1        -0.1870327574E+00      0.3236284182E+00
          0                 2           2             2    2     1       0.3479152525E-03       2    2    1         0.1870325646E-01      0.3236281510E-01
          0                 3           1             2    2     1      -0.2369174191E-04       2    2    1        -0.1309228698E-02      0.2265398373E-02

    ------------------------------------------------
       NWT REQUIRED            3 OUTER ITERATIONS 
       AND A TOTAL OF          5 INNER ITERATIONS.
    ------------------------------------------------

 NO OUTPUT CONTROL FOR STRESS PERIOD   49   TIME STEP   27
 
 SOLVING FOR HEAD 
                                                   Max.-Head-Change                         Max.-Flux-Residual
  Residual-Control   Outer-Iter.   Inner-Iter.     Column Row Layer    Maximum-Head-Change  Column Row Layer    Maximum-Flux-Residual          L2-NORM 
          0                 1           2             1    2     1       0.1278256159E-02       2    1    1         0.6236688606E-01      0.1087763463E+00
          0                 2           2             1    2     1      -0.1243395389E-03       2    1    1        -0.6236694138E-02      0.1087764045E-01
          0                 3           1             1    2     1       0.8467060375E-05       2    1    1         0.4365687263E-03      0.7614348262E-03

    ------------------------------------------------
       NWT REQUIRED            3 OUTER ITERATIONS 
       AND A TOTAL OF          5 INNER ITERATIONS.
    ------------------------------------------------

 NO OUTPUT CONTROL FOR STRESS PERIOD   49   TIME STEP   28
 
 SOLVING FOR HEAD 
                                                   Max.-Head-Change                         Max.-Flux-Residual
  Residual-Control   Outer-Iter.   Inner-Iter.     Column Row Layer    Maximum-Head-Change  Column Row Layer    Maximum-Flux-Residual          L2-NORM 
          0                 1           2             1    2     1       0.1275488290E-02       2    1    1         0.6216090702E-01      0.1082556882E+00
          0                 2           2             1    2     1      -0.1240703003E-03       2    1    1        -0.6216096193E-02      0.1082557251E-01
          0                 3           1             1    2     1       0.8448726480E-05       2    1    1         0.4351268455E-03      0.7577905241E-03

    ------------------------------------------------
       NWT REQUIRED            3 OUTER ITERATIONS 
       AND A TOTAL OF          5 INNER ITERATIONS.
    ------------------------------------------------

 NO OUTPUT CONTROL FOR STRESS PERIOD   49   TIME STEP   29
 
 SOLVING FOR HEAD 
                                                   Max.-Head-Change                         Max.-Flux-Residual
  Residual-Control   Outer-Iter.   Inner-Iter.     Column Row Layer    Maximum-Head-Change  Column Row Layer    Maximum-Flux-Residual          L2-NORM 
          0                 1           2             1    2     1       0.1272777217E-02       2    1    1         0.6195602093E-01      0.1077304674E+00
          0                 2           2             1    2     1      -0.1238065863E-03       2    1    1        -0.6195607531E-02      0.1077305215E-01
          0                 3           1             1    2     1       0.8430768659E-05       2    1    1         0.4336926634E-03      0.7541507095E-03

    ------------------------------------------------
       NWT REQUIRED            3 OUTER ITERATIONS 
       AND A TOTAL OF          5 INNER ITERATIONS.
    ------------------------------------------------

 NO OUTPUT CONTROL FOR STRESS PERIOD   49   TIME STEP   30



 STREAM LISTING     PERIOD     49   STEP       30

 LAYER ROW COL. STREAM  RCH.  FLOW INTO     FLOW TO   FLOW OUT OF   OVRLND.     DIRECT     STREAM       STREAM     STREAM     STREAM   STREAMBED  STREAMBED
                SEG.NO.  NO.  STRM. RCH.    AQUIFER    STRM. RCH.    RUNOFF     PRECIP       ET          HEAD       DEPTH      WIDTH   CONDCTNC.   GRADIENT

   1    1    1     1     1    1.4250E+01  1.8169E-01   1.4068E+01  0.000E+00  0.000E+00  0.000E+00  1.09404E+03  9.953E-01  1.011E+01  4.547E-02  1.332E+00
   1    2    2     1     2    1.4068E+01  2.7999E-01   1.3788E+01  0.000E+00  0.000E+00  0.000E+00  1.08905E+03  9.906E-01  1.002E+01  7.016E-02  1.330E+00
   1    3    3     1     3    1.3788E+01  2.3745E-01   1.3551E+01  0.000E+00  0.000E+00  0.000E+00  1.08340E+03  9.852E-01  9.930E+00  5.958E-02  1.328E+00
   1    3    4     1     4    1.3551E+01  2.1755E-01   1.3333E+01  0.000E+00  0.000E+00  0.000E+00  1.07839E+03  9.805E-01  9.848E+00  5.465E-02  1.327E+00
   1    4    5     2     1    1.1333E+01  2.9214E-01   1.1041E+01  0.000E+00  0.000E+00  0.000E+00  1.07268E+03  7.454E-01  1.200E+01  7.800E-02  1.248E+00
   1    5    6     2     2    1.1041E+01  2.2410E-01   1.0817E+01  0.000E+00  0.000E+00  0.000E+00  1.06724E+03  7.350E-01  1.200E+01  6.000E-02  1.245E+00
   1    6    6     2     3    1.0817E+01  2.2356E-01   1.0594E+01  0.000E+00  0.000E+00  0.000E+00  1.06252E+03  7.259E-01  1.200E+01  6.000E-02  1.242E+00
   1    7    6     2     4    1.0594E+01  2.2301E-01   1.0371E+01  0.000E+00  0.000E+00  0.000E+00  1.05779E+03  7.168E-01  1.200E+01  6.000E-02  1.239E+00
   1    8    6     2     5    1.0371E+01  2.2246E-01   1.0148E+01  0.000E+00  0.000E+00  0.000E+00  1.05307E+03  7.076E-01  1.200E+01  6.000E-02  1.236E+00
   1    3    5     3     1    2.0000E+00  2.8252E-01   1.7175E+00  0.000E+00  0.000E+00  0.000E+00  1.07555E+03  1.909E+00  9.636E+00  7.227E-02  1.955E+00
   1    3    6     3     2    1.7175E+00  2.4905E-01   1.4684E+00  0.000E+00  0.000E+00  0.000E+00  1.07264E+03  1.727E+00  8.909E+00  6.682E-02  1.864E+00
   1    3    7     3     3    1.4684E+00  1.9718E-01   1.2712E+00  0.000E+00  0.000E+00  0.000E+00  1.06987E+03  1.555E+00  8.218E+00  5.547E-02  1.777E+00
   1    4    8     3     4    1.2712E+00  2.2567E-01   1.0456E+00  0.000E+00  0.000E+00  0.000E+00  1.06682E+03  1.364E+00  7.455E+00  6.709E-02  1.682E+00
   1    5    8     3     5    1.0456E+00  1.5790E-01   8.8768E-01  0.000E+00  0.000E+00  0.000E+00  1.06362E+03  1.164E+00  6.655E+00  4.991E-02  1.582E+00
   1    6    8     3     6    8.8768E-01  5.5980E-02   8.3170E-01  0.000E+00  0.000E+00  0.000E+00  1.06158E+03  1.036E+00  6.145E+00  1.844E-02  1.518E+00
   1    5   10     4     1    1.0000E+01  9.0919E-02   9.9091E+00  0.000E+00  0.000E+00  0.000E+00  1.07836E+03  6.368E-01  1.000E+01  2.500E-02  1.212E+00
   1    5    9     4     2    9.9091E+00  1.8158E-01   9.7275E+00  0.000E+00  0.000E+00  0.000E+00  1.07154E+03  6.315E-01  1.000E+01  5.000E-02  1.211E+00
   1    6    8     4     3    9.7275E+00  1.2689E-01   9.6006E+00  0.000E+00  0.000E+00  0.000E+00  1.06381E+03  6.256E-01  1.000E+01  3.500E-02  1.209E+00
   1    6    8     5     1    1.0432E+01  2.2686E-01   1.0205E+01  0.000E+00  0.000E+00  0.000E+00  1.05868E+03  6.790E-01  1.542E+01  6.166E-02  1.226E+00
   1    7    7     5     2    1.0205E+01  2.7894E-01   9.9265E+00  0.000E+00  0.000E+00  0.000E+00  1.05417E+03  6.732E-01  1.519E+01  7.594E-02  1.224E+00
   1    8    7     5     3    9.9265E+00  1.9221E-01   9.7343E+00  0.000E+00  0.000E+00  0.000E+00  1.04992E+03  6.676E-01  1.497E+01  5.241E-02  1.223E+00
   1    8    6     5     4    9.7343E+00  1.3577E-01   9.5985E+00  0.000E+00  0.000E+00  0.000E+00  1.04691E+03  6.637E-01  1.482E+01  3.706E-02  1.221E+00
   1    9    6     6     1    9.5985E+00  2.2097E-01   9.3776E+00  0.000E+00  0.000E+00  0.000E+00  1.04341E+03  6.828E-01  1.200E+01  6.000E-02  1.228E+00
   1   10    7     6     2    9.3776E+00  2.2039E-01   9.1572E+00  0.000E+00  0.000E+00  0.000E+00  1.03885E+03  6.732E-01  1.200E+01  6.000E-02  1.224E+00
   1   11    7     6     3    9.1572E+00  2.1981E-01   8.9374E+00  0.000E+00  0.000E+00  0.000E+00  1.03430E+03  6.636E-01  1.200E+01  6.000E-02  1.221E+00
   1   12    7     6     4    8.9374E+00  2.1923E-01   8.7181E+00  0.000E+00  0.000E+00  0.000E+00  1.02974E+03  6.539E-01  1.200E+01  6.000E-02  1.218E+00
   1   13    7     6     5    8.7181E+00 -1.1056E-01   8.8287E+00  0.000E+00  0.000E+00  0.000E+00  1.02656E+03  6.514E-01  1.200E+01  2.400E-01 -1.536E-01
   1   14    9     7     1    1.5000E+02  1.3460E+00   1.4865E+02  0.000E+00  0.000E+00  0.000E+00  1.03987E+03  2.288E+00  5.529E+01  5.593E-01  8.022E-01
   1   13    8     7     2    1.4865E+02  1.8507E+00   1.4680E+02  0.000E+00  0.000E+00  0.000E+00  1.03478E+03  2.279E+00  5.526E+01  6.148E-01  1.003E+00
   1   13    7     7     3    1.4680E+02  1.4902E+00   1.4531E+02  0.000E+00  0.000E+00  0.000E+00  1.02969E+03  2.270E+00  5.522E+01  5.584E-01  8.895E-01
   1   13    6     8     1    1.5414E+02  8.4242E-01   1.5330E+02  0.000E+00  0.000E+00  0.000E+00  1.02472E+03  2.843E+00  4.122E+01  4.201E-01  6.685E-01
   1   13    5     8     2    1.5330E+02  1.1207E-01   1.5319E+02  0.000E+00  0.000E+00  0.000E+00  1.01846E+03  2.840E+00  4.117E+01  4.196E-01  8.903E-02
   1   13    4     8     3    1.5319E+02 -2.6406E+00   1.5583E+02  0.000E+00  0.000E+00  0.000E+00  1.01222E+03  2.848E+00  4.130E+01  4.209E+00 -2.091E-01
   1   13    3     8     4    1.5583E+02 -3.7261E+00   1.5955E+02  0.000E+00  0.000E+00  0.000E+00  1.00600E+03  2.870E+00  4.162E+01  4.241E+00 -2.929E-01
   1   13    2     8     5    1.5955E+02 -2.5920E+00   1.6215E+02  0.000E+00  0.000E+00  0.000E+00  9.99767E+02  2.892E+00  4.193E+01  4.273E+00 -2.022E-01
   1   13    1     8     6    1.6215E+02 -1.9791E+00   1.6413E+02  0.000E+00  0.000E+00  0.000E+00  9.94782E+02  2.907E+00  4.215E+01  2.577E+00 -2.560E-01
   1    8    6     9     1    1.0148E+01  0.0000E+00   1.0148E+01  0.000E+00  0.000E+00  0.000E+00  1.08104E+03  2.286E+00  4.000E+00  0.000E+00  1.762E+00
   1    8    5     9     2    1.0148E+01  0.0000E+00   1.0148E+01  0.000E+00  0.000E+00  0.000E+00  1.08054E+03  2.286E+00  4.000E+00  0.000E+00  1.762E+00





UNSATURATED ZONE PACKAGE VOLUMETRIC BUDGET FOR  TIME STEP    30 STRESS PERIOD   49
  ------------------------------------------------------------------------------



     CUMULATIVE VOLUMES      L**3       RATES FOR THIS TIME STEP      L**3/T
     ------------------                 ------------------------

           IN:                                      IN:
           ---                                      ---
        INFILTRATION =   107061617.8916          INFILTRATION =           0.8475

          OUT:                                     OUT:
          ----                                     ----
              UZF ET =   105723752.9318                UZF ET =           0.7500
        UZF RECHARGE =       73224.0000          UZF RECHARGE =       0.0000E+00

            IN - OUT =     1264640.9598              IN - OUT =       9.7500E-02

          STORAGE:                                 STORAGE:
          --------                                 --------
      STORAGE CHANGE =     1264641.3748        STORAGE CHANGE =       9.7500E-02

 PERCENT DISCREPANCY IS DIFFERENCE BETWEEN IN-OUT MINUS CHANGE IN STORAGE
 DIVIDED BY THE AVERAGE OF IN AND OUT TIMES 100

 PERCENT DISCREPANCY =           0.00     PERCENT DISCREPANCY =           0.00






1
  VOLUMETRIC BUDGET FOR ENTIRE MODEL AT END OF TIME STEP   30, STRESS PERIOD  49
  ------------------------------------------------------------------------------

     CUMULATIVE VOLUMES      L**3       RATES FOR THIS TIME STEP      L**3/T
     ------------------                 ------------------------

           IN:                                      IN:
           ---                                      ---
             STORAGE     =    34619432.0000               STORAGE     =           0.2497
       CONSTANT HEAD     =           0.0000         CONSTANT HEAD     =           0.0000
     HEAD DEP BOUNDS     =    36156408.0000       HEAD DEP BOUNDS     =           0.2865
      STREAM LEAKAGE     =  1477183232.0000        STREAM LEAKAGE     =          11.0252
        UZF RECHARGE     =       73223.9531          UZF RECHARGE     =           0.0000
               GW ET     =           0.0000                 GW ET     =           0.0000
     SURFACE LEAKAGE     =           0.0000       SURFACE LEAKAGE     =           0.0000

                TOTAL IN =  1548032256.0000                  TOTAL IN =          11.5614

          OUT:                                     OUT:
          ----                                     ----
             STORAGE     =   113947376.0000               STORAGE     =           0.2261
       CONSTANT HEAD     =           0.0000         CONSTANT HEAD     =           0.0000
     HEAD DEP BOUNDS     =    36245116.0000       HEAD DEP BOUNDS     =           0.2869
      STREAM LEAKAGE     =  1397861376.0000        STREAM LEAKAGE     =          11.0484
        UZF RECHARGE     =           0.0000          UZF RECHARGE     =           0.0000
               GW ET     =           0.0000                 GW ET     =           0.0000
     SURFACE LEAKAGE     =           0.0000       SURFACE LEAKAGE     =           0.0000

               TOTAL OUT =  1548053888.0000                 TOTAL OUT =          11.5613

                IN - OUT =      -21632.0000                  IN - OUT =       1.0490E-05

     PERCENT DISCREPANCY =          -0.00         PERCENT DISCREPANCY =           0.00






         TIME SUMMARY AT END OF TIME STEP   30 IN STRESS PERIOD   49
                    SECONDS     MINUTES      HOURS       DAYS        YEARS
                    -----------------------------------------------------------
   TIME STEP LENGTH  87667.      1461.1      24.352      1.0147     2.77799E-03
 STRESS PERIOD TIME 2.63000E+06  43833.      730.56      30.440     8.33397E-02
         TOTAL TIME 1.26325E+08 2.10542E+06  35090.      1462.1      4.0030    
1


 Run end date and time (yyyy/mm/dd hh:mm:ss): 2021/09/23 15:40:48
 Elapsed run time: 2.715 Seconds

