                                  MODFLOW-NWT-SWR1 
      U.S. GEOLOGICAL SURVEY MODULAR FINITE-DIFFERENCE GROUNDWATER-FLOW MODEL
                            VERSION 1.3.0 06/01/2022
                    BASED ON MODFLOW-2005 VERSION 1.12.00 02/03/2017

 LIST FILE: .\output\Sfr2weltab.lst
                         UNIT   12

 OPENING .\input\Sfr2weltab.dis
 FILE TYPE:DIS   UNIT   13   STATUS:OLD    
 FORMAT:FORMATTED              ACCESS:SEQUENTIAL          

 OPENING .\input\Sfr2weltab.ghb
 FILE TYPE:GHB   UNIT   15   STATUS:OLD    
 FORMAT:FORMATTED              ACCESS:SEQUENTIAL          

 OPENING .\input\Sfr2weltab.bs6
 FILE TYPE:BAS6   UNIT   41   STATUS:OLD    
 FORMAT:FORMATTED              ACCESS:SEQUENTIAL          

 OPENING .\input\Sfr2weltab.upw
 FILE TYPE:UPW   UNIT   42   STATUS:OLD    
 FORMAT:FORMATTED              ACCESS:SEQUENTIAL          

 OPENING .\input\Sfr2weltab.nwt
 FILE TYPE:NWT   UNIT   43   STATUS:OLD    
 FORMAT:FORMATTED              ACCESS:SEQUENTIAL          

 OPENING .\input\Sfr2weltab.oc
 FILE TYPE:OC   UNIT   44   STATUS:OLD    
 FORMAT:FORMATTED              ACCESS:SEQUENTIAL          

 OPENING .\input\Sfr2weltab.sfr
 FILE TYPE:SFR   UNIT   45   STATUS:OLD    
 FORMAT:FORMATTED              ACCESS:SEQUENTIAL          

 OPENING .\input\Sfr2weltab.wel
 FILE TYPE:WEL   UNIT   91   STATUS:OLD    
 FORMAT:FORMATTED              ACCESS:SEQUENTIAL          

 OPENING .\output\Sfr2weltab.out
 FILE TYPE:DATA   UNIT   51   STATUS:UNKNOWN
 FORMAT:FORMATTED              ACCESS:SEQUENTIAL          

 OPENING .\input\weltab1.txt
 FILE TYPE:DATA   UNIT   92   STATUS:UNKNOWN
 FORMAT:FORMATTED              ACCESS:SEQUENTIAL          

 OPENING .\input\weltab2.txt
 FILE TYPE:DATA   UNIT   93   STATUS:UNKNOWN
 FORMAT:FORMATTED              ACCESS:SEQUENTIAL          

 OPENING .\input\Sfr2weltab.gag
 FILE TYPE:GAGE   UNIT   46   STATUS:OLD    
 FORMAT:FORMATTED              ACCESS:SEQUENTIAL          

 OPENING .\output\Sfr2weltab.gg1
 FILE TYPE:DATA   UNIT   83   STATUS:UNKNOWN
 FORMAT:FORMATTED              ACCESS:SEQUENTIAL          

 OPENING .\output\Sfr2weltab.gg2
 FILE TYPE:DATA   UNIT   84   STATUS:UNKNOWN
 FORMAT:FORMATTED              ACCESS:SEQUENTIAL          

 OPENING .\output\Sfr2weltab.gg3
 FILE TYPE:DATA   UNIT   85   STATUS:UNKNOWN
 FORMAT:FORMATTED              ACCESS:SEQUENTIAL          

 OPENING .\output\Sfr2weltab.gg4
 FILE TYPE:DATA   UNIT   86   STATUS:UNKNOWN
 FORMAT:FORMATTED              ACCESS:SEQUENTIAL          

 OPENING .\output\Sfr2weltab.gg5
 FILE TYPE:DATA   UNIT   87   STATUS:UNKNOWN
 FORMAT:FORMATTED              ACCESS:SEQUENTIAL          

 OPENING .\output\Sfr2weltab.gg6
 FILE TYPE:DATA   UNIT   88   STATUS:UNKNOWN
 FORMAT:FORMATTED              ACCESS:SEQUENTIAL          

 OPENING .\output\Sfr2weltab.gg7
 FILE TYPE:DATA   UNIT   89   STATUS:UNKNOWN
 FORMAT:FORMATTED              ACCESS:SEQUENTIAL          

 OPENING .\output\Sfr2weltab.gg8
 FILE TYPE:DATA   UNIT   90   STATUS:UNKNOWN
 FORMAT:FORMATTED              ACCESS:SEQUENTIAL          

 BAS -- BASIC PACKAGE, VERSION 1.1.4, 4/01/2018 INPUT READ FROM UNIT   41
 
 MODFLOW was compiled using mixed precision
 Precision of REAL variables:           6
 Precision of DOUBLE PRECISION variables:          15

 DISCRETIZATION INPUT DATA READ FROM UNIT   13
 # Discretization file input for hypothetical test simulation
 # Units: seconds, meters
    1 LAYERS         7 ROWS       100 COLUMNS
   50 STRESS PERIOD(S) IN SIMULATION
 MODEL TIME UNIT IS SECONDS
 MODEL LENGTH UNIT IS METERS
  Confining bed flag for each layer:
   0

                     DELR =   200.000    



                               DELC
 READING ON UNIT   13 WITH FORMAT: (FREE)              
   90.000       90.000       90.000       60.000       90.000    
   90.000       90.000    



           TOP ELEVATION OF LAYER 1
 READING ON UNIT   13 WITH FORMAT: (FREE)              

           1          2          3          4          5          6          7          8          9         10         11
          12         13         14         15         16         17         18         19         20         21         22
          23         24         25         26         27         28         29         30         31         32         33
          34         35         36         37         38         39         40         41         42         43         44
          45         46         47         48         49         50         51         52         53         54         55
          56         57         58         59         60         61         62         63         64         65         66
          67         68         69         70         71         72         73         74         75         76         77
          78         79         80         81         82         83         84         85         86         87         88
          89         90         91         92         93         94         95         96         97         98         99
         100
 .........................................................................................................................
   1    125.       124.       124.       124.       124.       123.       123.       123.       123.       122.       122.    
        122.       122.       121.       121.       121.       121.       120.       120.       120.       120.       119.    
        119.       119.       119.       118.       118.       118.       118.       117.       117.       117.       117.    
        116.       116.       116.       116.       115.       115.       115.       115.       114.       114.       114.    
        114.       113.       113.       113.       113.       112.       112.       112.       112.       111.       111.    
        111.       111.       110.       110.       110.       110.       109.       109.       109.       109.       108.    
        108.       108.       108.       107.       107.       107.       107.       106.       106.       106.       106.    
        105.       105.       105.       105.       104.       104.       104.       104.       103.       103.       103.    
        103.       102.       102.       102.       102.       101.       101.       101.       101.       100.       100.    
        100.    
   2    125.       124.       124.       124.       124.       123.       123.       123.       123.       122.       122.    
        122.       122.       121.       121.       121.       121.       120.       120.       120.       120.       119.    
        119.       119.       119.       118.       118.       118.       118.       117.       117.       117.       117.    
        116.       116.       116.       116.       115.       115.       115.       115.       114.       114.       114.    
        114.       113.       113.       113.       113.       112.       112.       112.       112.       111.       111.    
        111.       111.       110.       110.       110.       110.       109.       109.       109.       109.       108.    
        108.       108.       108.       107.       107.       107.       107.       106.       106.       106.       106.    
        105.       105.       105.       105.       104.       104.       104.       104.       103.       103.       103.    
        103.       102.       102.       102.       102.       101.       101.       101.       101.       100.       100.    
        100.    
   3    125.       124.       124.       124.       124.       123.       123.       123.       123.       122.       122.    
        122.       122.       121.       121.       121.       121.       120.       120.       120.       120.       119.    
        119.       119.       119.       118.       118.       118.       118.       117.       117.       117.       117.    
        116.       116.       116.       116.       115.       115.       115.       115.       114.       114.       114.    
        114.       113.       113.       113.       113.       112.       112.       112.       112.       111.       111.    
        111.       111.       110.       110.       110.       110.       109.       109.       109.       109.       108.    
        108.       108.       108.       107.       107.       107.       107.       106.       106.       106.       106.    
        105.       105.       105.       105.       104.       104.       104.       104.       103.       103.       103.    
        103.       102.       102.       102.       102.       101.       101.       101.       101.       100.       100.    
        100.    
   4    125.       124.       124.       124.       124.       123.       123.       123.       123.       122.       122.    
        122.       122.       121.       121.       121.       121.       120.       120.       120.       120.       119.    
        119.       119.       119.       118.       118.       118.       118.       117.       117.       117.       117.    
        116.       116.       116.       116.       115.       115.       115.       115.       114.       114.       114.    
        114.       113.       113.       113.       113.       112.       112.       112.       112.       111.       111.    
        111.       111.       110.       110.       110.       110.       109.       109.       109.       109.       108.    
        108.       108.       108.       107.       107.       107.       107.       106.       106.       106.       106.    
        105.       105.       105.       105.       104.       104.       104.       104.       103.       103.       103.    
        103.       102.       102.       102.       102.       101.       101.       101.       101.       100.       100.    
        100.    
   5    125.       124.       124.       124.       124.       123.       123.       123.       123.       122.       122.    
        122.       122.       121.       121.       121.       121.       120.       120.       120.       120.       119.    
        119.       119.       119.       118.       118.       118.       118.       117.       117.       117.       117.    
        116.       116.       116.       116.       115.       115.       115.       115.       114.       114.       114.    
        114.       113.       113.       113.       113.       112.       112.       112.       112.       111.       111.    
        111.       111.       110.       110.       110.       110.       109.       109.       109.       109.       108.    
        108.       108.       108.       107.       107.       107.       107.       106.       106.       106.       106.    
        105.       105.       105.       105.       104.       104.       104.       104.       103.       103.       103.    
        103.       102.       102.       102.       102.       101.       101.       101.       101.       100.       100.    
        100.    
   6    125.       124.       124.       124.       124.       123.       123.       123.       123.       122.       122.    
        122.       122.       121.       121.       121.       121.       120.       120.       120.       120.       119.    
        119.       119.       119.       118.       118.       118.       118.       117.       117.       117.       117.    
        116.       116.       116.       116.       115.       115.       115.       115.       114.       114.       114.    
        114.       113.       113.       113.       113.       112.       112.       112.       112.       111.       111.    
        111.       111.       110.       110.       110.       110.       109.       109.       109.       109.       108.    
        108.       108.       108.       107.       107.       107.       107.       106.       106.       106.       106.    
        105.       105.       105.       105.       104.       104.       104.       104.       103.       103.       103.    
        103.       102.       102.       102.       102.       101.       101.       101.       101.       100.       100.    
        100.    
   7    125.       124.       124.       124.       124.       123.       123.       123.       123.       122.       122.    
        122.       122.       121.       121.       121.       121.       120.       120.       120.       120.       119.    
        119.       119.       119.       118.       118.       118.       118.       117.       117.       117.       117.    
        116.       116.       116.       116.       115.       115.       115.       115.       114.       114.       114.    
        114.       113.       113.       113.       113.       112.       112.       112.       112.       111.       111.    
        111.       111.       110.       110.       110.       110.       109.       109.       109.       109.       108.    
        108.       108.       108.       107.       107.       107.       107.       106.       106.       106.       106.    
        105.       105.       105.       105.       104.       104.       104.       104.       103.       103.       103.    
        103.       102.       102.       102.       102.       101.       101.       101.       101.       100.       100.    
        100.    

   MODEL LAYER BOTTOM EL. =   0.00000     FOR LAYER   1


 STRESS PERIOD     LENGTH       TIME STEPS     MULTIPLIER FOR DELT    SS FLAG
 ----------------------------------------------------------------------------
        1         2592000.         30                    1.100         TR
        2         2592000.         30                    1.100         TR
        3         2592000.         30                    1.100         TR
        4         2592000.         30                    1.100         TR
        5         2592000.         30                    1.100         TR
        6         2592000.         30                    1.100         TR
        7         2592000.         30                    1.100         TR
        8         2592000.         30                    1.100         TR
        9         2592000.         30                    1.100         TR
       10         2592000.         30                    1.100         TR
       11         2592000.         30                    1.100         TR
       12         2592000.         30                    1.100         TR
       13         2592000.         30                    1.100         TR
       14         2592000.         30                    1.100         TR
       15         2592000.         30                    1.100         TR
       16         2592000.         30                    1.100         TR
       17         2592000.         30                    1.100         TR
       18         2592000.         30                    1.100         TR
       19         2592000.         30                    1.100         TR
       20         2592000.         30                    1.100         TR
       21         2592000.         30                    1.100         TR
       22         2592000.         30                    1.100         TR
       23         2592000.         30                    1.100         TR
       24         2592000.         30                    1.100         TR
       25         2592000.         30                    1.100         TR
       26         2592000.         30                    1.100         TR
       27         2592000.         30                    1.100         TR
       28         2592000.         30                    1.100         TR
       29         2592000.         30                    1.100         TR
       30         2592000.         30                    1.100         TR
       31         2592000.         30                    1.100         TR
       32         2592000.         30                    1.100         TR
       33         2592000.         30                    1.100         TR
       34         2592000.         30                    1.100         TR
       35         2592000.         30                    1.100         TR
       36         2592000.         30                    1.100         TR
       37         2592000.         30                    1.100         TR
       38         2592000.         30                    1.100         TR
       39         2592000.         30                    1.100         TR
       40         2592000.         30                    1.100         TR
       41         2592000.         30                    1.100         TR
       42         2592000.         30                    1.100         TR
       43         2592000.         30                    1.100         TR
       44         2592000.         30                    1.100         TR
       45         2592000.         30                    1.100         TR
       46         2592000.         30                    1.100         TR
       47         2592000.         30                    1.100         TR
       48         2592000.         30                    1.100         TR
       49         2592000.         30                    1.100         TR
       50         2592000.         30                    1.100         TR

 TRANSIENT SIMULATION



 
 # BAS6 Package input file for hypothetical test simulation                      
 # Test of SFR2 Package                                                          
 THE FREE FORMAT OPTION HAS BEEN SELECTED



                     BOUNDARY ARRAY FOR LAYER   1
 READING ON UNIT   41 WITH FORMAT: (30I2)              

      1 2 3 4 5 6 7 8 9101112131415161718192021222324252627282930313233343536373839404142434445464748495051525354555657585960
     61626364656667686970717273747576777879808182838485868788899091929394959697989100
 ............................................................................................................................
   1  1 1 1 1 1 1 1 1 1 1 1 1 1 1 1 1 1 1 1 1 1 1 1 1 1 1 1 1 1 1 1 1 1 1 1 1 1 1 1 1 1 1 1 1 1 1 1 1 1 1 1 1 1 1 1 1 1 1 1 1
      1 1 1 1 1 1 1 1 1 1 1 1 1 1 1 1 1 1 1 1 1 1 1 1 1 1 1 1 1 1 1 1 1 1 1 1 1 1 1 1
   2  1 1 1 1 1 1 1 1 1 1 1 1 1 1 1 1 1 1 1 1 1 1 1 1 1 1 1 1 1 1 1 1 1 1 1 1 1 1 1 1 1 1 1 1 1 1 1 1 1 1 1 1 1 1 1 1 1 1 1 1
      1 1 1 1 1 1 1 1 1 1 1 1 1 1 1 1 1 1 1 1 1 1 1 1 1 1 1 1 1 1 1 1 1 1 1 1 1 1 1 1
   3  1 1 1 1 1 1 1 1 1 1 1 1 1 1 1 1 1 1 1 1 1 1 1 1 1 1 1 1 1 1 1 1 1 1 1 1 1 1 1 1 1 1 1 1 1 1 1 1 1 1 1 1 1 1 1 1 1 1 1 1
      1 1 1 1 1 1 1 1 1 1 1 1 1 1 1 1 1 1 1 1 1 1 1 1 1 1 1 1 1 1 1 1 1 1 1 1 1 1 1 1
   4  1 1 1 1 1 1 1 1 1 1 1 1 1 1 1 1 1 1 1 1 1 1 1 1 1 1 1 1 1 1 1 1 1 1 1 1 1 1 1 1 1 1 1 1 1 1 1 1 1 1 1 1 1 1 1 1 1 1 1 1
      1 1 1 1 1 1 1 1 1 1 1 1 1 1 1 1 1 1 1 1 1 1 1 1 1 1 1 1 1 1 1 1 1 1 1 1 1 1 1 1
   5  1 1 1 1 1 1 1 1 1 1 1 1 1 1 1 1 1 1 1 1 1 1 1 1 1 1 1 1 1 1 1 1 1 1 1 1 1 1 1 1 1 1 1 1 1 1 1 1 1 1 1 1 1 1 1 1 1 1 1 1
      1 1 1 1 1 1 1 1 1 1 1 1 1 1 1 1 1 1 1 1 1 1 1 1 1 1 1 1 1 1 1 1 1 1 1 1 1 1 1 1
   6  1 1 1 1 1 1 1 1 1 1 1 1 1 1 1 1 1 1 1 1 1 1 1 1 1 1 1 1 1 1 1 1 1 1 1 1 1 1 1 1 1 1 1 1 1 1 1 1 1 1 1 1 1 1 1 1 1 1 1 1
      1 1 1 1 1 1 1 1 1 1 1 1 1 1 1 1 1 1 1 1 1 1 1 1 1 1 1 1 1 1 1 1 1 1 1 1 1 1 1 1
   7  1 1 1 1 1 1 1 1 1 1 1 1 1 1 1 1 1 1 1 1 1 1 1 1 1 1 1 1 1 1 1 1 1 1 1 1 1 1 1 1 1 1 1 1 1 1 1 1 1 1 1 1 1 1 1 1 1 1 1 1
      1 1 1 1 1 1 1 1 1 1 1 1 1 1 1 1 1 1 1 1 1 1 1 1 1 1 1 1 1 1 1 1 1 1 1 1 1 1 1 1

 AQUIFER HEAD WILL BE SET TO  -6999.0     AT ALL NO-FLOW NODES (IBOUND=0).

             INITIAL HEAD =   104.000     FOR LAYER   1
 # OC input file for hypothetical test simulation
 # Test of SFR2 Package

 OUTPUT CONTROL IS SPECIFIED ONLY AT TIME STEPS FOR WHICH OUTPUT IS DESIRED
 HEADS WILL BE SAVED WITH FORMAT: (10F10.3)           
 SAVED HEADS WILL BE LABELED
 COMPACT CELL-BY-CELL BUDGET FILES WILL BE WRITTEN
 HEAD PRINT FORMAT CODE IS  14    DRAWDOWN PRINT FORMAT CODE IS   0
 HEADS WILL BE SAVED ON UNIT   51    DRAWDOWNS WILL BE SAVED ON UNIT    0
 # NWT Input File
 # Test Problem 3 for MODFLOW-NWT
 #HEADTOL  FLUXTOL MAXITEROUT THICKFACT LINMETH IPRNWT IBOTAV OPTIONS DBDREDUCE DBDINCREASE DBDGAMMA MOMFACT BACKFLAG MAXBACKITER BACKTOL BACKREDUCE

 NWT1 -- Newton Solver, VERSION 1.1.4, 4/01/2018
         INPUT READ FROM UNIT 43

 SPECIFIED OPTION:
 SOLVER INPUT VALUES ARE SPECIFIED BY USER
 ***XMD linear solver will be used***
 
   CONVERGENCE CRITERION OF   0.100000E-05 FOR HEAD SOLUTION
   AND A TOLERANCE OF   0.100000E-02 FOR FLOW SOLUTION AND 
   A MAXIMUM OF   200 OUTER ITERATIONS. 


   D-B-D REDUCTION FACTOR OF    0.990000E+00 AND 
   A D-B-D INCREASE FACTOR OF    0.100000E-04 AND 
   A D-B-D RELAXATION OF    0.000000E+00 AND 
   A MOMENTUM FACTOR OF    0.100000E+00 .


 ***BACKTRACKING IS INACTIVE***
 XMD -- LINEAR SOLUTION BY XMD PACKAGE VERSION 1.30
     BY MOTOMU IBARAKI, OHIO STATE UNIVERSITY, COLOMBUS, OH
                 INPUT READ FROM UNIT 43
 ACCELERATION METHOD                    (IACL) =         2
 NODE ORDERING FLAG                   (NORDER) =         0
 LEVEL OF FILL                         (LEVEL) =         1
 MAXIMUM NUMBER OF ORTHOGONALIZATIONS  (NORTH) =        15
 INDEX FOR USING REDUCED SYSTEM      (IREDSYS) =         1
 RESID. REDUCTION CONVERGE CRITERION  (RRCTOL) =  0.000000E+00
 INDEX FOR USING DROP TOLERANCE     (IDROPTOL) =         1
 DROP TOLERANCE VALUE                  (EPSRN) =  0.500000E-02
 CONVERGENCE CRITERIA OF           (HCLOSEXMD) =  0.100000E-03
 MAX. NUMBER OF LINEAR ITERATIONS  (MXITERXMD) =        50


 UPW1 -- UPSTREAM WEIGHTING FLOW PACKAGE, VERSION 1.1.4, 4/01/2018
         INPUT READ FROM UNIT 42

 # LPF Package input file for hypothetical test simulation
 # Test of SFR2 Package
 No named parameters

   LAYER FLAGS:
 LAYER       LAYTYP          LAYAVG    CHANI           LAYVKA           LAYWET
 ---------------------------------------------------------------------------
    1             1             0     1.000E+00             0             0

   INTERPRETATION OF LAYER FLAGS:
                        INTERBLOCK     HORIZONTAL    DATA IN
         LAYER TYPE   TRANSMISSIVITY   ANISOTROPY   ARRAY VKA   WETTABILITY
 LAYER   (LAYTYP)        (LAYAVG)      (CHANI)     (LAYVKA)       (LAYWET)
 ---------------------------------------------------------------------------
    1   CONVERTIBLE      HARMONIC     1.000E+00    VERTICAL K  NON-WETTABLE

    HYD. COND. ALONG ROWS =  8.000000E-04 FOR LAYER   1

      VERTICAL HYD. COND. =  6.000000E-06 FOR LAYER   1

         SPECIFIC STORAGE =   0.00000     FOR LAYER   1

           SPECIFIC YIELD =  0.200000     FOR LAYER   1

 WEL -- WELL PACKAGE FOR NWT VERSION 1.1.4,  4/01/2018 INPUT READ FROM UNIT   91
 # header lines
 # header lines
 No named parameters

 PROCESSING WELL OPTIONS
  Pumping rates will be read from time series input files.          2 files will be read
  Pumping rates will be read from time series input files. A maximum of         51 row entries will be read per file

 END PROCESSING WELL OPTIONS
 MAXIMUM OF      2 ACTIVE WELLS AT ONE TIME
 CELL-BY-CELL FLOWS WILL BE PRINTED WHEN ICBCFL NOT 0
 No named parameters


     0 Well parameters

 GHB -- GENERAL-HEAD BOUNDARY PACKAGE, VERSION 7, 5/2/2005
         INPUT READ FROM UNIT   15
 # GHB Package input file for hypothetical test simulation
 # Test of SFR2 Package
 No named parameters
 MAXIMUM OF      7 ACTIVE GHB CELLS AT ONE TIME
 CELL-BY-CELL FLOWS WILL BE PRINTED WHEN ICBCFL NOT 0


     0 GHB parameters

 SFR7 -- STREAMFLOW ROUTING PACKAGE, VERSION 1.0.5, 2012-04-05
         INPUT READ FROM UNIT  45
 # SFR2 Package input file for hypothetical test simulation
 # Test of SFR2 Package; revised May 20, 2006
 No named parameters

 PROCESSING SFR2 OPTIONS
 
  Some stream information will be read by reach. This option replaces NSTRM<0

 END PROCESSING SFR2 OPTIONS
 


 NUMBER OF STREAM REACHES IS  100

 NUMBER OF STREAM SEGMENTS IS    1

 NUMBER OF STREAM PARAMETERS IS    0

 NUMBER OF STREAM SEGMENTS DEFINED USING PARAMETERS IS              0

 MAXIMUM ERROR FOR STREAM LEAKAGE RATES IS  1.00E-05

 CONSTANT FOR MANNINGS EQUATION IS  1.0000E+00





 OPTION FOR UNSATURATED FLOW BENEATH STREAMBEDS IS ACTIVE 




   STREAM NETWORK DESCRIPTION: 

   LAYER    ROW    COL   SEGMENT   REACH     LENGTH
                          NUMBER   NUMBER    IN CELL        
   --------------------------------------------------
      1      4      1       1        1    2.0000E+02
      1      4      2       1        2    2.0000E+02
      1      4      3       1        3    2.0000E+02
      1      4      4       1        4    2.0000E+02
      1      4      5       1        5    2.0000E+02
      1      4      6       1        6    2.0000E+02
      1      4      7       1        7    2.0000E+02
      1      4      8       1        8    2.0000E+02
      1      4      9       1        9    2.0000E+02
      1      4     10       1       10    2.0000E+02
      1      4     11       1       11    2.0000E+02
      1      4     12       1       12    2.0000E+02
      1      4     13       1       13    2.0000E+02
      1      4     14       1       14    2.0000E+02
      1      4     15       1       15    2.0000E+02
      1      4     16       1       16    2.0000E+02
      1      4     17       1       17    2.0000E+02
      1      4     18       1       18    2.0000E+02
      1      4     19       1       19    2.0000E+02
      1      4     20       1       20    2.0000E+02
      1      4     21       1       21    2.0000E+02
      1      4     22       1       22    2.0000E+02
      1      4     23       1       23    2.0000E+02
      1      4     24       1       24    2.0000E+02
      1      4     25       1       25    2.0000E+02
      1      4     26       1       26    2.0000E+02
      1      4     27       1       27    2.0000E+02
      1      4     28       1       28    2.0000E+02
      1      4     29       1       29    2.0000E+02
      1      4     30       1       30    2.0000E+02
      1      4     31       1       31    2.0000E+02
      1      4     32       1       32    2.0000E+02
      1      4     33       1       33    2.0000E+02
      1      4     34       1       34    2.0000E+02
      1      4     35       1       35    2.0000E+02
      1      4     36       1       36    2.0000E+02
      1      4     37       1       37    2.0000E+02
      1      4     38       1       38    2.0000E+02
      1      4     39       1       39    2.0000E+02
      1      4     40       1       40    2.0000E+02
      1      4     41       1       41    2.0000E+02
      1      4     42       1       42    2.0000E+02
      1      4     43       1       43    2.0000E+02
      1      4     44       1       44    2.0000E+02
      1      4     45       1       45    2.0000E+02
      1      4     46       1       46    2.0000E+02
      1      4     47       1       47    2.0000E+02
      1      4     48       1       48    2.0000E+02
      1      4     49       1       49    2.0000E+02
      1      4     50       1       50    2.0000E+02
      1      4     51       1       51    2.0000E+02
      1      4     52       1       52    2.0000E+02
      1      4     53       1       53    2.0000E+02
      1      4     54       1       54    2.0000E+02
      1      4     55       1       55    2.0000E+02
      1      4     56       1       56    2.0000E+02
      1      4     57       1       57    2.0000E+02
      1      4     58       1       58    2.0000E+02
      1      4     59       1       59    2.0000E+02
      1      4     60       1       60    2.0000E+02
      1      4     61       1       61    2.0000E+02
      1      4     62       1       62    2.0000E+02
      1      4     63       1       63    2.0000E+02
      1      4     64       1       64    2.0000E+02
      1      4     65       1       65    2.0000E+02
      1      4     66       1       66    2.0000E+02
      1      4     67       1       67    2.0000E+02
      1      4     68       1       68    2.0000E+02
      1      4     69       1       69    2.0000E+02
      1      4     70       1       70    2.0000E+02
      1      4     71       1       71    2.0000E+02
      1      4     72       1       72    2.0000E+02
      1      4     73       1       73    2.0000E+02
      1      4     74       1       74    2.0000E+02
      1      4     75       1       75    2.0000E+02
      1      4     76       1       76    2.0000E+02
      1      4     77       1       77    2.0000E+02
      1      4     78       1       78    2.0000E+02
      1      4     79       1       79    2.0000E+02
      1      4     80       1       80    2.0000E+02
      1      4     81       1       81    2.0000E+02
      1      4     82       1       82    2.0000E+02
      1      4     83       1       83    2.0000E+02
      1      4     84       1       84    2.0000E+02
      1      4     85       1       85    2.0000E+02
      1      4     86       1       86    2.0000E+02
      1      4     87       1       87    2.0000E+02
      1      4     88       1       88    2.0000E+02
      1      4     89       1       89    2.0000E+02
      1      4     90       1       90    2.0000E+02
      1      4     91       1       91    2.0000E+02
      1      4     92       1       92    2.0000E+02
      1      4     93       1       93    2.0000E+02
      1      4     94       1       94    2.0000E+02
      1      4     95       1       95    2.0000E+02
      1      4     96       1       96    2.0000E+02
      1      4     97       1       97    2.0000E+02
      1      4     98       1       98    2.0000E+02
      1      4     99       1       99    2.0000E+02
      1      4    100       1      100    2.0000E+02
 INITIAL WATER CONTENT IS LESS THAN RESIDUAL WATER CONTENT FOR STREAM SEGMENT:     1 REACH:     1 INITIAL WATER CONTENT RESET TO RESIDUAL OF  0.10000E+00
 INITIAL WATER CONTENT IS LESS THAN RESIDUAL WATER CONTENT FOR STREAM SEGMENT:     1 REACH:     2 INITIAL WATER CONTENT RESET TO RESIDUAL OF  0.10000E+00
 INITIAL WATER CONTENT IS LESS THAN RESIDUAL WATER CONTENT FOR STREAM SEGMENT:     1 REACH:     3 INITIAL WATER CONTENT RESET TO RESIDUAL OF  0.10000E+00
 INITIAL WATER CONTENT IS LESS THAN RESIDUAL WATER CONTENT FOR STREAM SEGMENT:     1 REACH:     4 INITIAL WATER CONTENT RESET TO RESIDUAL OF  0.10000E+00
 INITIAL WATER CONTENT IS LESS THAN RESIDUAL WATER CONTENT FOR STREAM SEGMENT:     1 REACH:     5 INITIAL WATER CONTENT RESET TO RESIDUAL OF  0.10000E+00
 INITIAL WATER CONTENT IS LESS THAN RESIDUAL WATER CONTENT FOR STREAM SEGMENT:     1 REACH:     6 INITIAL WATER CONTENT RESET TO RESIDUAL OF  0.10000E+00
 INITIAL WATER CONTENT IS LESS THAN RESIDUAL WATER CONTENT FOR STREAM SEGMENT:     1 REACH:     7 INITIAL WATER CONTENT RESET TO RESIDUAL OF  0.10000E+00
 INITIAL WATER CONTENT IS LESS THAN RESIDUAL WATER CONTENT FOR STREAM SEGMENT:     1 REACH:     8 INITIAL WATER CONTENT RESET TO RESIDUAL OF  0.10000E+00
 INITIAL WATER CONTENT IS LESS THAN RESIDUAL WATER CONTENT FOR STREAM SEGMENT:     1 REACH:     9 INITIAL WATER CONTENT RESET TO RESIDUAL OF  0.10000E+00
 INITIAL WATER CONTENT IS LESS THAN RESIDUAL WATER CONTENT FOR STREAM SEGMENT:     1 REACH:    10 INITIAL WATER CONTENT RESET TO RESIDUAL OF  0.10000E+00
 INITIAL WATER CONTENT IS LESS THAN RESIDUAL WATER CONTENT FOR STREAM SEGMENT:     1 REACH:    11 INITIAL WATER CONTENT RESET TO RESIDUAL OF  0.10000E+00
 INITIAL WATER CONTENT IS LESS THAN RESIDUAL WATER CONTENT FOR STREAM SEGMENT:     1 REACH:    12 INITIAL WATER CONTENT RESET TO RESIDUAL OF  0.10000E+00
 INITIAL WATER CONTENT IS LESS THAN RESIDUAL WATER CONTENT FOR STREAM SEGMENT:     1 REACH:    13 INITIAL WATER CONTENT RESET TO RESIDUAL OF  0.10000E+00
 INITIAL WATER CONTENT IS LESS THAN RESIDUAL WATER CONTENT FOR STREAM SEGMENT:     1 REACH:    14 INITIAL WATER CONTENT RESET TO RESIDUAL OF  0.10000E+00
 INITIAL WATER CONTENT IS LESS THAN RESIDUAL WATER CONTENT FOR STREAM SEGMENT:     1 REACH:    15 INITIAL WATER CONTENT RESET TO RESIDUAL OF  0.10000E+00
 INITIAL WATER CONTENT IS LESS THAN RESIDUAL WATER CONTENT FOR STREAM SEGMENT:     1 REACH:    16 INITIAL WATER CONTENT RESET TO RESIDUAL OF  0.10000E+00
 INITIAL WATER CONTENT IS LESS THAN RESIDUAL WATER CONTENT FOR STREAM SEGMENT:     1 REACH:    17 INITIAL WATER CONTENT RESET TO RESIDUAL OF  0.10000E+00
 INITIAL WATER CONTENT IS LESS THAN RESIDUAL WATER CONTENT FOR STREAM SEGMENT:     1 REACH:    18 INITIAL WATER CONTENT RESET TO RESIDUAL OF  0.10000E+00
 INITIAL WATER CONTENT IS LESS THAN RESIDUAL WATER CONTENT FOR STREAM SEGMENT:     1 REACH:    19 INITIAL WATER CONTENT RESET TO RESIDUAL OF  0.10000E+00
 INITIAL WATER CONTENT IS LESS THAN RESIDUAL WATER CONTENT FOR STREAM SEGMENT:     1 REACH:    20 INITIAL WATER CONTENT RESET TO RESIDUAL OF  0.10000E+00
 INITIAL WATER CONTENT IS LESS THAN RESIDUAL WATER CONTENT FOR STREAM SEGMENT:     1 REACH:    21 INITIAL WATER CONTENT RESET TO RESIDUAL OF  0.10000E+00
 INITIAL WATER CONTENT IS LESS THAN RESIDUAL WATER CONTENT FOR STREAM SEGMENT:     1 REACH:    22 INITIAL WATER CONTENT RESET TO RESIDUAL OF  0.10000E+00
 INITIAL WATER CONTENT IS LESS THAN RESIDUAL WATER CONTENT FOR STREAM SEGMENT:     1 REACH:    23 INITIAL WATER CONTENT RESET TO RESIDUAL OF  0.10000E+00
 INITIAL WATER CONTENT IS LESS THAN RESIDUAL WATER CONTENT FOR STREAM SEGMENT:     1 REACH:    24 INITIAL WATER CONTENT RESET TO RESIDUAL OF  0.10000E+00
 INITIAL WATER CONTENT IS LESS THAN RESIDUAL WATER CONTENT FOR STREAM SEGMENT:     1 REACH:    25 INITIAL WATER CONTENT RESET TO RESIDUAL OF  0.10000E+00
 INITIAL WATER CONTENT IS LESS THAN RESIDUAL WATER CONTENT FOR STREAM SEGMENT:     1 REACH:    26 INITIAL WATER CONTENT RESET TO RESIDUAL OF  0.10000E+00
 INITIAL WATER CONTENT IS LESS THAN RESIDUAL WATER CONTENT FOR STREAM SEGMENT:     1 REACH:    27 INITIAL WATER CONTENT RESET TO RESIDUAL OF  0.10000E+00
 INITIAL WATER CONTENT IS LESS THAN RESIDUAL WATER CONTENT FOR STREAM SEGMENT:     1 REACH:    28 INITIAL WATER CONTENT RESET TO RESIDUAL OF  0.10000E+00
 INITIAL WATER CONTENT IS LESS THAN RESIDUAL WATER CONTENT FOR STREAM SEGMENT:     1 REACH:    29 INITIAL WATER CONTENT RESET TO RESIDUAL OF  0.10000E+00
 INITIAL WATER CONTENT IS LESS THAN RESIDUAL WATER CONTENT FOR STREAM SEGMENT:     1 REACH:    30 INITIAL WATER CONTENT RESET TO RESIDUAL OF  0.10000E+00
 INITIAL WATER CONTENT IS LESS THAN RESIDUAL WATER CONTENT FOR STREAM SEGMENT:     1 REACH:    31 INITIAL WATER CONTENT RESET TO RESIDUAL OF  0.10000E+00
 INITIAL WATER CONTENT IS LESS THAN RESIDUAL WATER CONTENT FOR STREAM SEGMENT:     1 REACH:    32 INITIAL WATER CONTENT RESET TO RESIDUAL OF  0.10000E+00
 INITIAL WATER CONTENT IS LESS THAN RESIDUAL WATER CONTENT FOR STREAM SEGMENT:     1 REACH:    33 INITIAL WATER CONTENT RESET TO RESIDUAL OF  0.10000E+00
 INITIAL WATER CONTENT IS LESS THAN RESIDUAL WATER CONTENT FOR STREAM SEGMENT:     1 REACH:    34 INITIAL WATER CONTENT RESET TO RESIDUAL OF  0.10000E+00
 INITIAL WATER CONTENT IS LESS THAN RESIDUAL WATER CONTENT FOR STREAM SEGMENT:     1 REACH:    35 INITIAL WATER CONTENT RESET TO RESIDUAL OF  0.10000E+00
 INITIAL WATER CONTENT IS LESS THAN RESIDUAL WATER CONTENT FOR STREAM SEGMENT:     1 REACH:    36 INITIAL WATER CONTENT RESET TO RESIDUAL OF  0.10000E+00
 INITIAL WATER CONTENT IS LESS THAN RESIDUAL WATER CONTENT FOR STREAM SEGMENT:     1 REACH:    37 INITIAL WATER CONTENT RESET TO RESIDUAL OF  0.10000E+00
 INITIAL WATER CONTENT IS LESS THAN RESIDUAL WATER CONTENT FOR STREAM SEGMENT:     1 REACH:    38 INITIAL WATER CONTENT RESET TO RESIDUAL OF  0.10000E+00
 INITIAL WATER CONTENT IS LESS THAN RESIDUAL WATER CONTENT FOR STREAM SEGMENT:     1 REACH:    39 INITIAL WATER CONTENT RESET TO RESIDUAL OF  0.10000E+00
 INITIAL WATER CONTENT IS LESS THAN RESIDUAL WATER CONTENT FOR STREAM SEGMENT:     1 REACH:    40 INITIAL WATER CONTENT RESET TO RESIDUAL OF  0.10000E+00
 INITIAL WATER CONTENT IS LESS THAN RESIDUAL WATER CONTENT FOR STREAM SEGMENT:     1 REACH:    41 INITIAL WATER CONTENT RESET TO RESIDUAL OF  0.10000E+00
 INITIAL WATER CONTENT IS LESS THAN RESIDUAL WATER CONTENT FOR STREAM SEGMENT:     1 REACH:    42 INITIAL WATER CONTENT RESET TO RESIDUAL OF  0.10000E+00
 INITIAL WATER CONTENT IS LESS THAN RESIDUAL WATER CONTENT FOR STREAM SEGMENT:     1 REACH:    43 INITIAL WATER CONTENT RESET TO RESIDUAL OF  0.10000E+00
 INITIAL WATER CONTENT IS LESS THAN RESIDUAL WATER CONTENT FOR STREAM SEGMENT:     1 REACH:    44 INITIAL WATER CONTENT RESET TO RESIDUAL OF  0.10000E+00
 INITIAL WATER CONTENT IS LESS THAN RESIDUAL WATER CONTENT FOR STREAM SEGMENT:     1 REACH:    45 INITIAL WATER CONTENT RESET TO RESIDUAL OF  0.10000E+00
 INITIAL WATER CONTENT IS LESS THAN RESIDUAL WATER CONTENT FOR STREAM SEGMENT:     1 REACH:    46 INITIAL WATER CONTENT RESET TO RESIDUAL OF  0.10000E+00
 INITIAL WATER CONTENT IS LESS THAN RESIDUAL WATER CONTENT FOR STREAM SEGMENT:     1 REACH:    47 INITIAL WATER CONTENT RESET TO RESIDUAL OF  0.10000E+00
 INITIAL WATER CONTENT IS LESS THAN RESIDUAL WATER CONTENT FOR STREAM SEGMENT:     1 REACH:    48 INITIAL WATER CONTENT RESET TO RESIDUAL OF  0.10000E+00
 INITIAL WATER CONTENT IS LESS THAN RESIDUAL WATER CONTENT FOR STREAM SEGMENT:     1 REACH:    49 INITIAL WATER CONTENT RESET TO RESIDUAL OF  0.10000E+00
 INITIAL WATER CONTENT IS LESS THAN RESIDUAL WATER CONTENT FOR STREAM SEGMENT:     1 REACH:    50 INITIAL WATER CONTENT RESET TO RESIDUAL OF  0.10000E+00
 INITIAL WATER CONTENT IS LESS THAN RESIDUAL WATER CONTENT FOR STREAM SEGMENT:     1 REACH:    51 INITIAL WATER CONTENT RESET TO RESIDUAL OF  0.10000E+00
 INITIAL WATER CONTENT IS LESS THAN RESIDUAL WATER CONTENT FOR STREAM SEGMENT:     1 REACH:    52 INITIAL WATER CONTENT RESET TO RESIDUAL OF  0.10000E+00
 INITIAL WATER CONTENT IS LESS THAN RESIDUAL WATER CONTENT FOR STREAM SEGMENT:     1 REACH:    53 INITIAL WATER CONTENT RESET TO RESIDUAL OF  0.10000E+00
 INITIAL WATER CONTENT IS LESS THAN RESIDUAL WATER CONTENT FOR STREAM SEGMENT:     1 REACH:    54 INITIAL WATER CONTENT RESET TO RESIDUAL OF  0.10000E+00
 INITIAL WATER CONTENT IS LESS THAN RESIDUAL WATER CONTENT FOR STREAM SEGMENT:     1 REACH:    55 INITIAL WATER CONTENT RESET TO RESIDUAL OF  0.10000E+00
 INITIAL WATER CONTENT IS LESS THAN RESIDUAL WATER CONTENT FOR STREAM SEGMENT:     1 REACH:    56 INITIAL WATER CONTENT RESET TO RESIDUAL OF  0.10000E+00
 INITIAL WATER CONTENT IS LESS THAN RESIDUAL WATER CONTENT FOR STREAM SEGMENT:     1 REACH:    57 INITIAL WATER CONTENT RESET TO RESIDUAL OF  0.10000E+00
 INITIAL WATER CONTENT IS LESS THAN RESIDUAL WATER CONTENT FOR STREAM SEGMENT:     1 REACH:    58 INITIAL WATER CONTENT RESET TO RESIDUAL OF  0.10000E+00
 INITIAL WATER CONTENT IS LESS THAN RESIDUAL WATER CONTENT FOR STREAM SEGMENT:     1 REACH:    59 INITIAL WATER CONTENT RESET TO RESIDUAL OF  0.10000E+00
 INITIAL WATER CONTENT IS LESS THAN RESIDUAL WATER CONTENT FOR STREAM SEGMENT:     1 REACH:    60 INITIAL WATER CONTENT RESET TO RESIDUAL OF  0.10000E+00
 INITIAL WATER CONTENT IS LESS THAN RESIDUAL WATER CONTENT FOR STREAM SEGMENT:     1 REACH:    61 INITIAL WATER CONTENT RESET TO RESIDUAL OF  0.10000E+00
 INITIAL WATER CONTENT IS LESS THAN RESIDUAL WATER CONTENT FOR STREAM SEGMENT:     1 REACH:    62 INITIAL WATER CONTENT RESET TO RESIDUAL OF  0.10000E+00
 INITIAL WATER CONTENT IS LESS THAN RESIDUAL WATER CONTENT FOR STREAM SEGMENT:     1 REACH:    63 INITIAL WATER CONTENT RESET TO RESIDUAL OF  0.10000E+00
 INITIAL WATER CONTENT IS LESS THAN RESIDUAL WATER CONTENT FOR STREAM SEGMENT:     1 REACH:    64 INITIAL WATER CONTENT RESET TO RESIDUAL OF  0.10000E+00
 INITIAL WATER CONTENT IS LESS THAN RESIDUAL WATER CONTENT FOR STREAM SEGMENT:     1 REACH:    65 INITIAL WATER CONTENT RESET TO RESIDUAL OF  0.10000E+00
 INITIAL WATER CONTENT IS LESS THAN RESIDUAL WATER CONTENT FOR STREAM SEGMENT:     1 REACH:    66 INITIAL WATER CONTENT RESET TO RESIDUAL OF  0.10000E+00
 INITIAL WATER CONTENT IS LESS THAN RESIDUAL WATER CONTENT FOR STREAM SEGMENT:     1 REACH:    67 INITIAL WATER CONTENT RESET TO RESIDUAL OF  0.10000E+00
 INITIAL WATER CONTENT IS LESS THAN RESIDUAL WATER CONTENT FOR STREAM SEGMENT:     1 REACH:    68 INITIAL WATER CONTENT RESET TO RESIDUAL OF  0.10000E+00
 INITIAL WATER CONTENT IS LESS THAN RESIDUAL WATER CONTENT FOR STREAM SEGMENT:     1 REACH:    69 INITIAL WATER CONTENT RESET TO RESIDUAL OF  0.10000E+00
 INITIAL WATER CONTENT IS LESS THAN RESIDUAL WATER CONTENT FOR STREAM SEGMENT:     1 REACH:    70 INITIAL WATER CONTENT RESET TO RESIDUAL OF  0.10000E+00
 INITIAL WATER CONTENT IS LESS THAN RESIDUAL WATER CONTENT FOR STREAM SEGMENT:     1 REACH:    71 INITIAL WATER CONTENT RESET TO RESIDUAL OF  0.10000E+00
 INITIAL WATER CONTENT IS LESS THAN RESIDUAL WATER CONTENT FOR STREAM SEGMENT:     1 REACH:    72 INITIAL WATER CONTENT RESET TO RESIDUAL OF  0.10000E+00
 INITIAL WATER CONTENT IS LESS THAN RESIDUAL WATER CONTENT FOR STREAM SEGMENT:     1 REACH:    73 INITIAL WATER CONTENT RESET TO RESIDUAL OF  0.10000E+00
 INITIAL WATER CONTENT IS LESS THAN RESIDUAL WATER CONTENT FOR STREAM SEGMENT:     1 REACH:    74 INITIAL WATER CONTENT RESET TO RESIDUAL OF  0.10000E+00
 INITIAL WATER CONTENT IS LESS THAN RESIDUAL WATER CONTENT FOR STREAM SEGMENT:     1 REACH:    75 INITIAL WATER CONTENT RESET TO RESIDUAL OF  0.10000E+00
 INITIAL WATER CONTENT IS LESS THAN RESIDUAL WATER CONTENT FOR STREAM SEGMENT:     1 REACH:    76 INITIAL WATER CONTENT RESET TO RESIDUAL OF  0.10000E+00
 INITIAL WATER CONTENT IS LESS THAN RESIDUAL WATER CONTENT FOR STREAM SEGMENT:     1 REACH:    77 INITIAL WATER CONTENT RESET TO RESIDUAL OF  0.10000E+00
 INITIAL WATER CONTENT IS LESS THAN RESIDUAL WATER CONTENT FOR STREAM SEGMENT:     1 REACH:    78 INITIAL WATER CONTENT RESET TO RESIDUAL OF  0.10000E+00
 INITIAL WATER CONTENT IS LESS THAN RESIDUAL WATER CONTENT FOR STREAM SEGMENT:     1 REACH:    79 INITIAL WATER CONTENT RESET TO RESIDUAL OF  0.10000E+00
 INITIAL WATER CONTENT IS LESS THAN RESIDUAL WATER CONTENT FOR STREAM SEGMENT:     1 REACH:    80 INITIAL WATER CONTENT RESET TO RESIDUAL OF  0.10000E+00
 INITIAL WATER CONTENT IS LESS THAN RESIDUAL WATER CONTENT FOR STREAM SEGMENT:     1 REACH:    81 INITIAL WATER CONTENT RESET TO RESIDUAL OF  0.10000E+00
 INITIAL WATER CONTENT IS LESS THAN RESIDUAL WATER CONTENT FOR STREAM SEGMENT:     1 REACH:    82 INITIAL WATER CONTENT RESET TO RESIDUAL OF  0.10000E+00
 INITIAL WATER CONTENT IS LESS THAN RESIDUAL WATER CONTENT FOR STREAM SEGMENT:     1 REACH:    83 INITIAL WATER CONTENT RESET TO RESIDUAL OF  0.10000E+00
 INITIAL WATER CONTENT IS LESS THAN RESIDUAL WATER CONTENT FOR STREAM SEGMENT:     1 REACH:    84 INITIAL WATER CONTENT RESET TO RESIDUAL OF  0.10000E+00
 INITIAL WATER CONTENT IS LESS THAN RESIDUAL WATER CONTENT FOR STREAM SEGMENT:     1 REACH:    85 INITIAL WATER CONTENT RESET TO RESIDUAL OF  0.10000E+00
 INITIAL WATER CONTENT IS LESS THAN RESIDUAL WATER CONTENT FOR STREAM SEGMENT:     1 REACH:    86 INITIAL WATER CONTENT RESET TO RESIDUAL OF  0.10000E+00
 INITIAL WATER CONTENT IS LESS THAN RESIDUAL WATER CONTENT FOR STREAM SEGMENT:     1 REACH:    87 INITIAL WATER CONTENT RESET TO RESIDUAL OF  0.10000E+00
 INITIAL WATER CONTENT IS LESS THAN RESIDUAL WATER CONTENT FOR STREAM SEGMENT:     1 REACH:    88 INITIAL WATER CONTENT RESET TO RESIDUAL OF  0.10000E+00
 INITIAL WATER CONTENT IS LESS THAN RESIDUAL WATER CONTENT FOR STREAM SEGMENT:     1 REACH:    89 INITIAL WATER CONTENT RESET TO RESIDUAL OF  0.10000E+00
 INITIAL WATER CONTENT IS LESS THAN RESIDUAL WATER CONTENT FOR STREAM SEGMENT:     1 REACH:    90 INITIAL WATER CONTENT RESET TO RESIDUAL OF  0.10000E+00
 INITIAL WATER CONTENT IS LESS THAN RESIDUAL WATER CONTENT FOR STREAM SEGMENT:     1 REACH:    91 INITIAL WATER CONTENT RESET TO RESIDUAL OF  0.10000E+00
 INITIAL WATER CONTENT IS LESS THAN RESIDUAL WATER CONTENT FOR STREAM SEGMENT:     1 REACH:    92 INITIAL WATER CONTENT RESET TO RESIDUAL OF  0.10000E+00
 INITIAL WATER CONTENT IS LESS THAN RESIDUAL WATER CONTENT FOR STREAM SEGMENT:     1 REACH:    93 INITIAL WATER CONTENT RESET TO RESIDUAL OF  0.10000E+00
 INITIAL WATER CONTENT IS LESS THAN RESIDUAL WATER CONTENT FOR STREAM SEGMENT:     1 REACH:    94 INITIAL WATER CONTENT RESET TO RESIDUAL OF  0.10000E+00
 INITIAL WATER CONTENT IS LESS THAN RESIDUAL WATER CONTENT FOR STREAM SEGMENT:     1 REACH:    95 INITIAL WATER CONTENT RESET TO RESIDUAL OF  0.10000E+00
 INITIAL WATER CONTENT IS LESS THAN RESIDUAL WATER CONTENT FOR STREAM SEGMENT:     1 REACH:    96 INITIAL WATER CONTENT RESET TO RESIDUAL OF  0.10000E+00
 INITIAL WATER CONTENT IS LESS THAN RESIDUAL WATER CONTENT FOR STREAM SEGMENT:     1 REACH:    97 INITIAL WATER CONTENT RESET TO RESIDUAL OF  0.10000E+00
 INITIAL WATER CONTENT IS LESS THAN RESIDUAL WATER CONTENT FOR STREAM SEGMENT:     1 REACH:    98 INITIAL WATER CONTENT RESET TO RESIDUAL OF  0.10000E+00
 INITIAL WATER CONTENT IS LESS THAN RESIDUAL WATER CONTENT FOR STREAM SEGMENT:     1 REACH:    99 INITIAL WATER CONTENT RESET TO RESIDUAL OF  0.10000E+00
 INITIAL WATER CONTENT IS LESS THAN RESIDUAL WATER CONTENT FOR STREAM SEGMENT:     1 REACH:   100 INITIAL WATER CONTENT RESET TO RESIDUAL OF  0.10000E+00






   8 GAGING STATIONS WERE SPECIFIED.
     (Lakes are identified by a negative value of the Lake Number)
     RECORDS WILL BE WRITTEN TO SEPARATE OUTPUT FILES REPRESENTED BY FOLLOWING UNIT NUMBERS:

 Stream Gages:
  GAGE #   SEGMENT   REACH   UNIT   OUTTYPE
       1       1      20      83       6
       2       1      20      84       7
       3       1      40      85       6
       4       1      40      86       7
       5       1      60      87       6
       6       1      60      88       7
       7       1      80      89       6
       8       1      80      90       7




1
                            STRESS PERIOD NO.    1, LENGTH =   2592000.    
                            -----------------------------------------------

                              NUMBER OF TIME STEPS =    30

                               MULTIPLIER FOR DELT =     1.100

                            INITIAL TIME STEP SIZE =   15757.40    
 #well time series values for testsfr2 problem
 #well time series values for testsfr2 problem

      1 WELL 

 BOUND. NO. LAYER   ROW   COL     STAGE      CONDUCTANCE         
 ----------------------------------------------------------------
      1      1      1    100       75.00           4.100    
      2      1      2    100       75.00           4.100    
      3      1      3    100       75.00           4.100    
      4      1      4    100       75.00           4.100    
      5      1      5    100       75.00           4.100    
      6      1      6    100       75.00           4.100    
      7      1      7    100       75.00           4.100    

      7 GHB CELLS



 CLASSIFICATION & COUNT OF STREAM SEGMENTS BASED ON SOURCE OF INFLOW:

                HEADWATER     DIVERSION     RECEIVES TRIBUTARY FLOW
                ---------     ---------     -----------------------
                     1              0               0



                    INPUT DATA FOR EACH STREAM SEGMENT
 ---------------------------------------------------------------------------------------------

 SEGMENT    SEG.     INFLOW   OVERLAND   STREAM    STREAM   ICALC  OUTFLOW  DIVERSION PRIORITY
    NO.    LENGTH     RATE     RUNOFF      ET       PPT.    METH.  TO SEG.  FROM SEG.    NO.

      1  2.000E+04 3.000E-01 0.000E+00 0.000E+00 0.000E+00    2        0        0        0


         STREAMBED PROPERTIES AND STREAM DIMENSIONS

 SEGMENT     BED HYD. COND.      BED THICKNESS     ELEV.-TOP OF BED     WIDTH OF STREAM     DEPTH OF STREAM    STREAM ROUGHNESS    SAT. WATER CONT.    INT. WATER CONT.    BROOKS/COREY EPS.     UNSAT. HYD. COND.
    No.     UPPER     LOWER     UPPER     LOWER     UPPER     LOWER     UPPER     LOWER     UPPER     LOWER   CHANNEL      BANK     UPPER     LOWER     UPPER     LOWER     UPPER     LOWER     UPPER

     1  3.500E-07 3.500E-07 5.000E-01 5.000E-01 1.400E+02 1.100E+02                                         3.000E-02 4.000E-02 3.000E-01 3.000E-01 1.000E-01 1.000E-01 3.500E+00 3.500E+00 6.000E-06 6.000E-06

  EIGHT POINT CROSS-SECTION DATA FOR SEGMENTS WITH ICALC = 2
    X VALUES X VALUES START FROM LEFT SIDE LOOKING DOWNSTREAM

     SEGMENT NO.        X1        X2        X3        X4        X5        X6        X7        X8
            1      0.000E+00 2.000E+00 4.000E+00 6.000E+00 8.000E+00 1.000E+01 1.200E+01 1.400E+01

    Z VALUES ARE RELATIVE TO STREAMBED ELEVATION

     SEGMENT NO.          Z1        Z2        Z3        Z4        Z5        Z6        Z7        Z8
            1      6.000E+00 4.500E+00 3.500E+00 0.000E+00 3.000E-01 3.500E+00 4.500E+00 6.000E+00



 
 SOLVING FOR HEAD 
                                                   Max.-Head-Change                         Max.-Flux-Residual
  Residual-Control   Outer-Iter.   Inner-Iter.     Column Row Layer    Maximum-Head-Change  Column Row Layer    Maximum-Flux-Residual          L2-NORM 
          0                 1           7           100    4     1      -0.3188978938E+02     100    1    1        -0.1188999901E+03      0.3145862144E+03
          0                 2           2            98    1     1       0.2662410659E+02     100    5    1         0.1824532323E+02      0.6182001942E+02
          0                 3           7            97    4     1      -0.5713007250E+01     100    3    1        -0.1444810291E+01      0.4212220707E+01
          0                 4           2            97    4     1       0.3791823439E+01      97    5    1         0.8454826984E+00      0.5515513979E+01
          0                 5           7            97    4     1      -0.1262321519E+01      98    5    1        -0.5067975064E-01      0.2353545014E+00
          0                 6           2            93    4     1       0.1072752214E+01      97    5    1         0.2669771128E+00      0.1823972433E+01
          0                 7           3            90    1     1       0.6494627143E+00      86    5    1         0.2687759280E-01      0.1375388094E+00
          0                 8           4            90    1     1      -0.4412059313E-01      84    5    1         0.7185425035E-02      0.2407154167E-01
          0                 9           2            89    1     1       0.1525152947E-01      89    1    1         0.3583859688E-02      0.9125521907E-02
          0                10           2            89    1     1      -0.4845426074E-03      89    1    1        -0.1149661437E-03      0.3770228584E-03
                                                   Max.-Head-Change                         Max.-Flux-Residual
  Residual-Control   Outer-Iter.   Inner-Iter.     Column Row Layer    Maximum-Head-Change  Column Row Layer    Maximum-Flux-Residual          L2-NORM 
          0                11           1            82    2     1       0.1159180262E-04      89    1    1         0.2615980385E-05      0.8697784863E-05
          0                12           1            89    7     1      -0.1361243628E-06      89    7    1        -0.3538621707E-07      0.9353409196E-07

    ------------------------------------------------
       NWT REQUIRED           12 OUTER ITERATIONS 
       AND A TOTAL OF         40 INNER ITERATIONS.
    ------------------------------------------------

 NO OUTPUT CONTROL FOR STRESS PERIOD    1   TIME STEP    1
 
 SOLVING FOR HEAD 
                                                   Max.-Head-Change                         Max.-Flux-Residual
  Residual-Control   Outer-Iter.   Inner-Iter.     Column Row Layer    Maximum-Head-Change  Column Row Layer    Maximum-Flux-Residual          L2-NORM 
          0                 1           3            99    6     1      -0.2683210104E+01     100    3    1        -0.5375326999E+01      0.1378350187E+02
          0                 2           2            99    7     1       0.2606439162E+00     100    7    1         0.5384281931E+00      0.1380643352E+01
          0                 3           2            99    7     1      -0.2328254840E-01     100    1    1        -0.4844701300E-01      0.1242373560E+00
          0                 4           2            99    1     1       0.1847615269E-02     100    1    1         0.3880698948E-02      0.9951622911E-02
          0                 5           2            99    1     1      -0.1287106800E-03     100    1    1        -0.2728087869E-03      0.6995922719E-03
          0                 6           1            99    1     1       0.7728729606E-05     100    7    1         0.1653113674E-04      0.4239287494E-04
          0                 7           1            99    1     1      -0.3905291310E-06     100    1    1        -0.8429332752E-06      0.2161644517E-05

    ------------------------------------------------
       NWT REQUIRED            7 OUTER ITERATIONS 
       AND A TOTAL OF         13 INNER ITERATIONS.
    ------------------------------------------------

 NO OUTPUT CONTROL FOR STRESS PERIOD    1   TIME STEP    2
 
 SOLVING FOR HEAD 
                                                   Max.-Head-Change                         Max.-Flux-Residual
  Residual-Control   Outer-Iter.   Inner-Iter.     Column Row Layer    Maximum-Head-Change  Column Row Layer    Maximum-Flux-Residual          L2-NORM 
          0                 1           3            99    7     1      -0.2224851101E+01      99    6    1        -0.5076423415E+00      0.1587300127E+01
          0                 2           3            99    7     1       0.2139036482E+00      99    6    1         0.4863762991E-01      0.1925098456E+00
          0                 3           2            99    1     1      -0.1914233077E-01      99    2    1        -0.4397124158E-02      0.1736040726E-01
          0                 4           2            99    1     1       0.1518856920E-02      99    2    1         0.3520538513E-03      0.1390286867E-02
          0                 5           1            99    1     1      -0.1058080405E-03      99    2    1        -0.2475021114E-04      0.9773719913E-04
          0                 6           1            99    1     1       0.6351669459E-05      99    1    1         0.1499684728E-05      0.5911720561E-05
          0                 7           1            99    1     1      -0.3208406220E-06      99    7    1        -0.7646908751E-07      0.3008351570E-06

    ------------------------------------------------
       NWT REQUIRED            7 OUTER ITERATIONS 
       AND A TOTAL OF         13 INNER ITERATIONS.
    ------------------------------------------------

 NO OUTPUT CONTROL FOR STRESS PERIOD    1   TIME STEP    3
 
 SOLVING FOR HEAD 
                                                   Max.-Head-Change                         Max.-Flux-Residual
  Residual-Control   Outer-Iter.   Inner-Iter.     Column Row Layer    Maximum-Head-Change  Column Row Layer    Maximum-Flux-Residual          L2-NORM 
          0                 1           3            99    7     1      -0.1851836443E+01      99    1    1        -0.3830437269E+00      0.1141183137E+01
          0                 2           2            99    1     1       0.1779762222E+00      99    1    1         0.3677374070E-01      0.1110733671E+00
          0                 3           2            99    1     1      -0.1592387781E-01      99    7    1        -0.3323752685E-02      0.1002416005E-01
          0                 4           2            99    1     1       0.1263511864E-02      99    1    1         0.2661196375E-03      0.8027141619E-03
          0                 5           1            99    1     1      -0.8802057283E-04      99    7    1        -0.1870866382E-04      0.5643140418E-04
          0                 6           1            99    1     1       0.5284873607E-05      99    7    1         0.1133667656E-05      0.3419052784E-05
          0                 7           1            99    1     1      -0.2670101864E-06      99    7    1        -0.5780584278E-07      0.1743120793E-06

    ------------------------------------------------
       NWT REQUIRED            7 OUTER ITERATIONS 
       AND A TOTAL OF         12 INNER ITERATIONS.
    ------------------------------------------------

 NO OUTPUT CONTROL FOR STRESS PERIOD    1   TIME STEP    4
 
 SOLVING FOR HEAD 
                                                   Max.-Head-Change                         Max.-Flux-Residual
  Residual-Control   Outer-Iter.   Inner-Iter.     Column Row Layer    Maximum-Head-Change  Column Row Layer    Maximum-Flux-Residual          L2-NORM 
          0                 1           3            99    7     1      -0.1555225081E+01      99    7    1        -0.2898490006E+00      0.9322716459E+00
          0                 2           3            99    7     1       0.1499558829E+00      99    1    1         0.2792375562E-01      0.9124686003E-01
          0                 3           2            99    1     1      -0.1341230566E-01      99    1    1        -0.2522950009E-02      0.8230246699E-02
          0                 4           2            99    1     1       0.1064262803E-02      99    1    1         0.2020098080E-03      0.6590979305E-03
          0                 5           1            99    1     1      -0.7413944178E-04      99    1    1        -0.1420158794E-04      0.4633481882E-04
          0                 6           1            99    1     1       0.4450892675E-05      99    7    1         0.8605577260E-06      0.2806768956E-05
          0                 7           1            99    1     1      -0.2248459285E-06      99    7    1        -0.4387993524E-07      0.1430661701E-06

    ------------------------------------------------
       NWT REQUIRED            7 OUTER ITERATIONS 
       AND A TOTAL OF         13 INNER ITERATIONS.
    ------------------------------------------------

 NO OUTPUT CONTROL FOR STRESS PERIOD    1   TIME STEP    5
 
 SOLVING FOR HEAD 
                                                   Max.-Head-Change                         Max.-Flux-Residual
  Residual-Control   Outer-Iter.   Inner-Iter.     Column Row Layer    Maximum-Head-Change  Column Row Layer    Maximum-Flux-Residual          L2-NORM 
          0                 1           3            99    7     1      -0.1319854591E+01      99    7    1        -0.2212237849E+00      0.7871956021E+00
          0                 2           3            99    7     1       0.1277219598E+00      99    1    1         0.2139660090E-01      0.8063306676E-01
          0                 3           2            99    1     1      -0.1141967397E-01      99    1    1        -0.1932424255E-02      0.7268365800E-02
          0                 4           2            99    1     1       0.9061793694E-03      99    1    1         0.1547333680E-03      0.5821042993E-03
          0                 5           1            99    1     1      -0.6312608996E-04      99    1    1        -0.1087794470E-04      0.4092188512E-04
          0                 6           1            99    1     1       0.3789146734E-05      99    1    1         0.6591588253E-06      0.2478764476E-05
          0                 7           1            99    1     1      -0.1913951836E-06      99    7    1        -0.3361058187E-07      0.1263475352E-06

    ------------------------------------------------
       NWT REQUIRED            7 OUTER ITERATIONS 
       AND A TOTAL OF         13 INNER ITERATIONS.
    ------------------------------------------------

 NO OUTPUT CONTROL FOR STRESS PERIOD    1   TIME STEP    6
 
 SOLVING FOR HEAD 
                                                   Max.-Head-Change                         Max.-Flux-Residual
  Residual-Control   Outer-Iter.   Inner-Iter.     Column Row Layer    Maximum-Head-Change  Column Row Layer    Maximum-Flux-Residual          L2-NORM 
          0                 1           3            99    7     1      -0.1132697459E+01      99    1    1        -0.1706153331E+00      0.6830294772E+00
          0                 2           3            99    7     1       0.1099300296E+00      99    7    1         0.1656918678E-01      0.6747890703E-01
          0                 3           2            99    1     1      -0.9825639281E-02      99    1    1        -0.1495809905E-02      0.6080727488E-02
          0                 4           2            99    1     1       0.7797154938E-03      99    1    1         0.1197777447E-03      0.4870049086E-03
          0                 5           1            99    1     1      -0.5431661750E-04      99    7    1        -0.8420490032E-05      0.3423632051E-04
          0                 6           1            99    1     1       0.3260740555E-05      99    7    1         0.5102473035E-06      0.2073943512E-05
          0                 7           1            99    1     1      -0.1647236976E-06      99    1    1        -0.2601756321E-07      0.1057168116E-06

    ------------------------------------------------
       NWT REQUIRED            7 OUTER ITERATIONS 
       AND A TOTAL OF         13 INNER ITERATIONS.
    ------------------------------------------------

 NO OUTPUT CONTROL FOR STRESS PERIOD    1   TIME STEP    7
 
 SOLVING FOR HEAD 
                                                   Max.-Head-Change                         Max.-Flux-Residual
  Residual-Control   Outer-Iter.   Inner-Iter.     Column Row Layer    Maximum-Head-Change  Column Row Layer    Maximum-Flux-Residual          L2-NORM 
          0                 1           3            98    7     1      -0.1018107906E+01      99    7    1        -0.1330726238E+00      0.6048649290E+00
          0                 2           3            98    7     1       0.1001433122E+00      99    7    1         0.1297499847E-01      0.5992904722E-01
          0                 3           2            98    1     1      -0.8938355382E-02      99    1    1        -0.1170856367E-02      0.5398817931E-02
          0                 4           2            98    1     1       0.7094024390E-03      99    1    1         0.9376078221E-04      0.4324029324E-03
          0                 5           1            98    1     1      -0.4941440813E-04      99    1    1        -0.6591448383E-05      0.3039769814E-04
          0                 6           1            98    2     1       0.2964280112E-05      99    1    1         0.3994149615E-06      0.1841020223E-05
          0                 7           1            98    2     1      -0.1496523058E-06      99    7    1        -0.2036621316E-07      0.9382524432E-07

    ------------------------------------------------
       NWT REQUIRED            7 OUTER ITERATIONS 
       AND A TOTAL OF         13 INNER ITERATIONS.
    ------------------------------------------------

 NO OUTPUT CONTROL FOR STRESS PERIOD    1   TIME STEP    8
 
 SOLVING FOR HEAD 
                                                   Max.-Head-Change                         Max.-Flux-Residual
  Residual-Control   Outer-Iter.   Inner-Iter.     Column Row Layer    Maximum-Head-Change  Column Row Layer    Maximum-Flux-Residual          L2-NORM 
          0                 1           3            98    7     1      -0.9824722651E+00      98    7    1        -0.1085917721E+00      0.5453760591E+00
          0                 2           3            98    7     1       0.9655880281E-01      98    7    1         0.1074944304E-01      0.5441325988E-01
          0                 3           2            98    1     1      -0.8619171425E-02      98    7    1        -0.9685209774E-03      0.4900855872E-02
          0                 4           2            98    1     1       0.6840657016E-03      98    1    1         0.7756966871E-04      0.3925285626E-03
          0                 5           1            98    2     1      -0.4764912889E-04      98    1    1        -0.5453097842E-05      0.2759449527E-04
          0                 6           1            98    2     1       0.2857526886E-05      98    2    1         0.3304308756E-06      0.1670496884E-05
          0                 7           1            98    2     1      -0.1442013465E-06      98    2    1        -0.1684869844E-07      0.8509116835E-07

    ------------------------------------------------
       NWT REQUIRED            7 OUTER ITERATIONS 
       AND A TOTAL OF         13 INNER ITERATIONS.
    ------------------------------------------------

 NO OUTPUT CONTROL FOR STRESS PERIOD    1   TIME STEP    9
 
 SOLVING FOR HEAD 
                                                   Max.-Head-Change                         Max.-Flux-Residual
  Residual-Control   Outer-Iter.   Inner-Iter.     Column Row Layer    Maximum-Head-Change  Column Row Layer    Maximum-Flux-Residual          L2-NORM 
          0                 1           3            98    7     1      -0.9401081994E+00      98    7    1        -0.9527225074E-01      0.4991029972E+00
          0                 2           3            98    7     1       0.9237559821E-01      98    7    1         0.9417343665E-02      0.5018379388E-01
          0                 3           2            98    1     1      -0.8246128722E-02      98    1    1        -0.8486207326E-03      0.4519201832E-02
          0                 4           2            98    1     1       0.6544565123E-03      98    1    1         0.6796579158E-04      0.3619664919E-03
          0                 5           1            98    2     1      -0.4558831527E-04      98    1    1        -0.4777958431E-05      0.2544599307E-04
          0                 6           1            98    2     1       0.2735370966E-05      98    6    1         0.2895228945E-06      0.1541076092E-05
          0                 7           1            98    2     1      -0.1381184133E-06      98    6    1        -0.1476280431E-07      0.7853322890E-07

    ------------------------------------------------
       NWT REQUIRED            7 OUTER ITERATIONS 
       AND A TOTAL OF         13 INNER ITERATIONS.
    ------------------------------------------------

 OUTPUT CONTROL FOR STRESS PERIOD    1   TIME STEP   10
    PRINT HEAD FOR ALL LAYERS
    SAVE HEAD FOR ALL LAYERS
    PRINT BUDGET
    SAVE BUDGET

            WELLS   PERIOD    1   STEP  10
 WELL      1   LAYER   1   ROW     3   COL    50   RATE    -1.42000    
 WELL      2   LAYER   1   ROW     5   COL    55   RATE    -1.42000    

  HEAD DEP BOUNDS   PERIOD    1   STEP    10
 BOUNDARY      1   LAYER   1   ROW     1   COL   100   RATE   -0.305383    
 BOUNDARY      2   LAYER   1   ROW     2   COL   100   RATE   -0.305271    
 BOUNDARY      3   LAYER   1   ROW     3   COL   100   RATE   -0.301927    
 BOUNDARY      4   LAYER   1   ROW     4   COL   100   RATE   -0.211001    
 BOUNDARY      5   LAYER   1   ROW     5   COL   100   RATE   -0.301927    
 BOUNDARY      6   LAYER   1   ROW     6   COL   100   RATE   -0.305271    
 BOUNDARY      7   LAYER   1   ROW     7   COL   100   RATE   -0.305383    



 STREAM LISTING     PERIOD      1   STEP       10

 LAYER ROW COL. STREAM  RCH.   FLOW INTO    STREAM     FLOW OUT OF   OVRLND.    DIRECT     STREAM      STREAM      STREAM     STREAM  STREAMBED   FLOW TO   CHNG. UNSAT. 
                SEG.NO.  NO.   STRM. RCH.    LOSS       STRM. RCH.   RUNOFF     PRECIP       ET         HEAD        DEPTH      WIDTH  CONDCTNC.   WAT. TAB.

   1    4    1     1     1    3.0000E-01  3.4737E-04   2.9965E-01  0.000E+00  0.000E+00  0.000E+00  1.40279E+02  4.294E-01  2.326E+00  3.737E-04  0.000E+00  3.474E-04
   1    4    2     1     2    2.9965E-01  3.4724E-04   2.9931E-01  0.000E+00  0.000E+00  0.000E+00  1.39979E+02  4.292E-01  2.326E+00  3.737E-04  0.000E+00  3.472E-04
   1    4    3     1     3    2.9931E-01  3.4710E-04   2.9896E-01  0.000E+00  0.000E+00  0.000E+00  1.39679E+02  4.290E-01  2.326E+00  3.736E-04  0.000E+00  3.471E-04
   1    4    4     1     4    2.9896E-01  3.4696E-04   2.9861E-01  0.000E+00  0.000E+00  0.000E+00  1.39379E+02  4.288E-01  2.326E+00  3.735E-04  0.000E+00  3.470E-04
   1    4    5     1     5    2.9861E-01  3.4682E-04   2.9826E-01  0.000E+00  0.000E+00  0.000E+00  1.39079E+02  4.286E-01  2.325E+00  3.735E-04  0.000E+00  3.468E-04
   1    4    6     1     6    2.9826E-01  3.4669E-04   2.9792E-01  0.000E+00  0.000E+00  0.000E+00  1.38778E+02  4.284E-01  2.325E+00  3.734E-04  0.000E+00  3.467E-04
   1    4    7     1     7    2.9792E-01  3.4655E-04   2.9757E-01  0.000E+00  0.000E+00  0.000E+00  1.38478E+02  4.282E-01  2.325E+00  3.733E-04  0.000E+00  3.466E-04
   1    4    8     1     8    2.9757E-01  3.4641E-04   2.9722E-01  0.000E+00  0.000E+00  0.000E+00  1.38178E+02  4.280E-01  2.325E+00  3.733E-04  0.000E+00  3.464E-04
   1    4    9     1     9    2.9722E-01  3.4628E-04   2.9688E-01  0.000E+00  0.000E+00  0.000E+00  1.37878E+02  4.278E-01  2.324E+00  3.732E-04  0.000E+00  3.463E-04
   1    4   10     1    10    2.9688E-01  3.4614E-04   2.9653E-01  0.000E+00  0.000E+00  0.000E+00  1.37578E+02  4.276E-01  2.324E+00  3.732E-04  0.000E+00  3.461E-04
   1    4   11     1    11    2.9653E-01  3.4600E-04   2.9619E-01  0.000E+00  0.000E+00  0.000E+00  1.37277E+02  4.274E-01  2.324E+00  3.731E-04  0.000E+00  3.460E-04
   1    4   12     1    12    2.9619E-01  3.4586E-04   2.9584E-01  0.000E+00  0.000E+00  0.000E+00  1.36977E+02  4.272E-01  2.324E+00  3.730E-04  0.000E+00  3.459E-04
   1    4   13     1    13    2.9584E-01  3.4573E-04   2.9549E-01  0.000E+00  0.000E+00  0.000E+00  1.36677E+02  4.270E-01  2.323E+00  3.730E-04  0.000E+00  3.457E-04
   1    4   14     1    14    2.9549E-01  3.4559E-04   2.9515E-01  0.000E+00  0.000E+00  0.000E+00  1.36377E+02  4.268E-01  2.323E+00  3.729E-04  0.000E+00  3.456E-04
   1    4   15     1    15    2.9515E-01  3.4545E-04   2.9480E-01  0.000E+00  0.000E+00  0.000E+00  1.36077E+02  4.266E-01  2.323E+00  3.728E-04  0.000E+00  3.455E-04
   1    4   16     1    16    2.9480E-01  3.4531E-04   2.9446E-01  0.000E+00  0.000E+00  0.000E+00  1.35776E+02  4.264E-01  2.323E+00  3.728E-04  0.000E+00  3.453E-04
   1    4   17     1    17    2.9446E-01  3.4518E-04   2.9411E-01  0.000E+00  0.000E+00  0.000E+00  1.35476E+02  4.262E-01  2.322E+00  3.727E-04  0.000E+00  3.452E-04
   1    4   18     1    18    2.9411E-01  3.4504E-04   2.9377E-01  0.000E+00  0.000E+00  0.000E+00  1.35176E+02  4.260E-01  2.322E+00  3.726E-04  0.000E+00  3.450E-04
   1    4   19     1    19    2.9377E-01  3.4490E-04   2.9342E-01  0.000E+00  0.000E+00  0.000E+00  1.34876E+02  4.258E-01  2.322E+00  3.726E-04  0.000E+00  3.449E-04
   1    4   20     1    20    2.9342E-01  3.4477E-04   2.9308E-01  0.000E+00  0.000E+00  0.000E+00  1.34576E+02  4.256E-01  2.322E+00  3.725E-04  0.000E+00  3.448E-04
   1    4   21     1    21    2.9308E-01  3.4463E-04   2.9273E-01  0.000E+00  0.000E+00  0.000E+00  1.34275E+02  4.254E-01  2.321E+00  3.724E-04  0.000E+00  3.446E-04
   1    4   22     1    22    2.9273E-01  3.4449E-04   2.9239E-01  0.000E+00  0.000E+00  0.000E+00  1.33975E+02  4.252E-01  2.321E+00  3.724E-04  0.000E+00  3.445E-04
   1    4   23     1    23    2.9239E-01  3.4435E-04   2.9205E-01  0.000E+00  0.000E+00  0.000E+00  1.33675E+02  4.250E-01  2.321E+00  3.723E-04  0.000E+00  3.444E-04
   1    4   24     1    24    2.9205E-01  3.4422E-04   2.9170E-01  0.000E+00  0.000E+00  0.000E+00  1.33375E+02  4.248E-01  2.321E+00  3.722E-04  0.000E+00  3.442E-04
   1    4   25     1    25    2.9170E-01  3.4408E-04   2.9136E-01  0.000E+00  0.000E+00  0.000E+00  1.33075E+02  4.246E-01  2.320E+00  3.722E-04  0.000E+00  3.441E-04
   1    4   26     1    26    2.9136E-01  3.4394E-04   2.9101E-01  0.000E+00  0.000E+00  0.000E+00  1.32774E+02  4.244E-01  2.320E+00  3.721E-04  0.000E+00  3.439E-04
   1    4   27     1    27    2.9101E-01  3.4381E-04   2.9067E-01  0.000E+00  0.000E+00  0.000E+00  1.32474E+02  4.242E-01  2.320E+00  3.720E-04  0.000E+00  3.438E-04
   1    4   28     1    28    2.9067E-01  3.4367E-04   2.9033E-01  0.000E+00  0.000E+00  0.000E+00  1.32174E+02  4.240E-01  2.320E+00  3.720E-04  0.000E+00  3.437E-04
   1    4   29     1    29    2.9033E-01  3.4353E-04   2.8998E-01  0.000E+00  0.000E+00  0.000E+00  1.31874E+02  4.237E-01  2.319E+00  3.719E-04  0.000E+00  3.435E-04
   1    4   30     1    30    2.8998E-01  3.4339E-04   2.8964E-01  0.000E+00  0.000E+00  0.000E+00  1.31574E+02  4.235E-01  2.319E+00  3.718E-04  0.000E+00  3.434E-04
   1    4   31     1    31    2.8964E-01  3.4326E-04   2.8930E-01  0.000E+00  0.000E+00  0.000E+00  1.31273E+02  4.233E-01  2.319E+00  3.718E-04  0.000E+00  3.433E-04
   1    4   32     1    32    2.8930E-01  3.4312E-04   2.8895E-01  0.000E+00  0.000E+00  0.000E+00  1.30973E+02  4.231E-01  2.319E+00  3.717E-04  0.000E+00  3.431E-04
   1    4   33     1    33    2.8895E-01  3.4298E-04   2.8861E-01  0.000E+00  0.000E+00  0.000E+00  1.30673E+02  4.229E-01  2.319E+00  3.716E-04  0.000E+00  3.430E-04
   1    4   34     1    34    2.8861E-01  3.4285E-04   2.8827E-01  0.000E+00  0.000E+00  0.000E+00  1.30373E+02  4.227E-01  2.318E+00  3.716E-04  0.000E+00  3.428E-04
   1    4   35     1    35    2.8827E-01  3.4271E-04   2.8792E-01  0.000E+00  0.000E+00  0.000E+00  1.30073E+02  4.225E-01  2.318E+00  3.715E-04  0.000E+00  3.427E-04
   1    4   36     1    36    2.8792E-01  3.4257E-04   2.8758E-01  0.000E+00  0.000E+00  0.000E+00  1.29772E+02  4.223E-01  2.318E+00  3.714E-04  0.000E+00  3.426E-04
   1    4   37     1    37    2.8758E-01  3.4244E-04   2.8724E-01  0.000E+00  0.000E+00  0.000E+00  1.29472E+02  4.221E-01  2.318E+00  3.714E-04  0.000E+00  3.424E-04
   1    4   38     1    38    2.8724E-01  3.4230E-04   2.8690E-01  0.000E+00  0.000E+00  0.000E+00  1.29172E+02  4.219E-01  2.317E+00  3.713E-04  0.000E+00  3.423E-04
   1    4   39     1    39    2.8690E-01  3.4216E-04   2.8655E-01  0.000E+00  0.000E+00  0.000E+00  1.28872E+02  4.217E-01  2.317E+00  3.712E-04  0.000E+00  3.422E-04
   1    4   40     1    40    2.8655E-01  3.4203E-04   2.8621E-01  0.000E+00  0.000E+00  0.000E+00  1.28572E+02  4.215E-01  2.317E+00  3.712E-04  0.000E+00  3.420E-04
   1    4   41     1    41    2.8621E-01  3.4189E-04   2.8587E-01  0.000E+00  0.000E+00  0.000E+00  1.28271E+02  4.213E-01  2.317E+00  3.711E-04  0.000E+00  3.419E-04
   1    4   42     1    42    2.8587E-01  3.4175E-04   2.8553E-01  0.000E+00  0.000E+00  0.000E+00  1.27971E+02  4.211E-01  2.316E+00  3.710E-04  0.000E+00  3.418E-04
   1    4   43     1    43    2.8553E-01  3.4162E-04   2.8519E-01  0.000E+00  0.000E+00  0.000E+00  1.27671E+02  4.209E-01  2.316E+00  3.710E-04  0.000E+00  3.416E-04
   1    4   44     1    44    2.8519E-01  3.4148E-04   2.8485E-01  0.000E+00  0.000E+00  0.000E+00  1.27371E+02  4.207E-01  2.316E+00  3.709E-04  0.000E+00  3.415E-04
   1    4   45     1    45    2.8485E-01  3.4134E-04   2.8450E-01  0.000E+00  0.000E+00  0.000E+00  1.27070E+02  4.205E-01  2.316E+00  3.708E-04  0.000E+00  3.413E-04
   1    4   46     1    46    2.8450E-01  3.4121E-04   2.8416E-01  0.000E+00  0.000E+00  0.000E+00  1.26770E+02  4.203E-01  2.315E+00  3.708E-04  0.000E+00  3.412E-04
   1    4   47     1    47    2.8416E-01  3.4107E-04   2.8382E-01  0.000E+00  0.000E+00  0.000E+00  1.26470E+02  4.201E-01  2.315E+00  3.707E-04  0.000E+00  3.411E-04
   1    4   48     1    48    2.8382E-01  3.4093E-04   2.8348E-01  0.000E+00  0.000E+00  0.000E+00  1.26170E+02  4.199E-01  2.315E+00  3.706E-04  0.000E+00  3.409E-04
   1    4   49     1    49    2.8348E-01  3.4080E-04   2.8314E-01  0.000E+00  0.000E+00  0.000E+00  1.25870E+02  4.197E-01  2.315E+00  3.706E-04  0.000E+00  3.408E-04
   1    4   50     1    50    2.8314E-01  3.4066E-04   2.8280E-01  0.000E+00  0.000E+00  0.000E+00  1.25569E+02  4.195E-01  2.314E+00  3.705E-04  0.000E+00  3.407E-04
   1    4   51     1    51    2.8280E-01  3.4052E-04   2.8246E-01  0.000E+00  0.000E+00  0.000E+00  1.25269E+02  4.193E-01  2.314E+00  3.704E-04  0.000E+00  3.405E-04
   1    4   52     1    52    2.8246E-01  3.4039E-04   2.8212E-01  0.000E+00  0.000E+00  0.000E+00  1.24969E+02  4.191E-01  2.314E+00  3.704E-04  0.000E+00  3.404E-04
   1    4   53     1    53    2.8212E-01  3.4025E-04   2.8178E-01  0.000E+00  0.000E+00  0.000E+00  1.24669E+02  4.189E-01  2.314E+00  3.703E-04  0.000E+00  3.402E-04
   1    4   54     1    54    2.8178E-01  3.4011E-04   2.8144E-01  0.000E+00  0.000E+00  0.000E+00  1.24369E+02  4.187E-01  2.313E+00  3.702E-04  0.000E+00  3.401E-04
   1    4   55     1    55    2.8144E-01  3.3998E-04   2.8110E-01  0.000E+00  0.000E+00  0.000E+00  1.24068E+02  4.185E-01  2.313E+00  3.702E-04  0.000E+00  3.400E-04
   1    4   56     1    56    2.8110E-01  3.3984E-04   2.8076E-01  0.000E+00  0.000E+00  0.000E+00  1.23768E+02  4.182E-01  2.313E+00  3.701E-04  0.000E+00  3.398E-04
   1    4   57     1    57    2.8076E-01  3.3970E-04   2.8042E-01  0.000E+00  0.000E+00  0.000E+00  1.23468E+02  4.180E-01  2.313E+00  3.700E-04  0.000E+00  3.397E-04
   1    4   58     1    58    2.8042E-01  3.3957E-04   2.8008E-01  0.000E+00  0.000E+00  0.000E+00  1.23168E+02  4.178E-01  2.312E+00  3.700E-04  0.000E+00  3.396E-04
   1    4   59     1    59    2.8008E-01  3.3943E-04   2.7974E-01  0.000E+00  0.000E+00  0.000E+00  1.22868E+02  4.176E-01  2.312E+00  3.699E-04  0.000E+00  3.394E-04
   1    4   60     1    60    2.7974E-01  3.3929E-04   2.7940E-01  0.000E+00  0.000E+00  0.000E+00  1.22567E+02  4.174E-01  2.312E+00  3.698E-04  0.000E+00  3.393E-04
   1    4   61     1    61    2.7940E-01  3.3916E-04   2.7906E-01  0.000E+00  0.000E+00  0.000E+00  1.22267E+02  4.172E-01  2.312E+00  3.698E-04  0.000E+00  3.392E-04
   1    4   62     1    62    2.7906E-01  3.3902E-04   2.7872E-01  0.000E+00  0.000E+00  0.000E+00  1.21967E+02  4.170E-01  2.311E+00  3.697E-04  0.000E+00  3.390E-04
   1    4   63     1    63    2.7872E-01  3.3889E-04   2.7838E-01  0.000E+00  0.000E+00  0.000E+00  1.21667E+02  4.168E-01  2.311E+00  3.696E-04  0.000E+00  3.389E-04
   1    4   64     1    64    2.7838E-01  3.3875E-04   2.7804E-01  0.000E+00  0.000E+00  0.000E+00  1.21367E+02  4.166E-01  2.311E+00  3.696E-04  0.000E+00  3.387E-04
   1    4   65     1    65    2.7804E-01  3.3861E-04   2.7771E-01  0.000E+00  0.000E+00  0.000E+00  1.21066E+02  4.164E-01  2.311E+00  3.695E-04  0.000E+00  3.386E-04
   1    4   66     1    66    2.7771E-01  3.3848E-04   2.7737E-01  0.000E+00  0.000E+00  0.000E+00  1.20766E+02  4.162E-01  2.310E+00  3.694E-04  0.000E+00  3.385E-04
   1    4   67     1    67    2.7737E-01  3.3834E-04   2.7703E-01  0.000E+00  0.000E+00  0.000E+00  1.20466E+02  4.160E-01  2.310E+00  3.694E-04  0.000E+00  3.383E-04
   1    4   68     1    68    2.7703E-01  3.3820E-04   2.7669E-01  0.000E+00  0.000E+00  0.000E+00  1.20166E+02  4.158E-01  2.310E+00  3.693E-04  0.000E+00  3.382E-04
   1    4   69     1    69    2.7669E-01  3.3807E-04   2.7635E-01  0.000E+00  0.000E+00  0.000E+00  1.19866E+02  4.156E-01  2.310E+00  3.692E-04  0.000E+00  3.381E-04
   1    4   70     1    70    2.7635E-01  3.3793E-04   2.7601E-01  0.000E+00  0.000E+00  0.000E+00  1.19565E+02  4.154E-01  2.309E+00  3.692E-04  0.000E+00  3.379E-04
   1    4   71     1    71    2.7601E-01  3.3779E-04   2.7568E-01  0.000E+00  0.000E+00  0.000E+00  1.19265E+02  4.152E-01  2.309E+00  3.691E-04  0.000E+00  3.378E-04
   1    4   72     1    72    2.7568E-01  3.3766E-04   2.7534E-01  0.000E+00  0.000E+00  0.000E+00  1.18965E+02  4.150E-01  2.309E+00  3.690E-04  0.000E+00  3.377E-04
   1    4   73     1    73    2.7534E-01  3.3752E-04   2.7500E-01  0.000E+00  0.000E+00  0.000E+00  1.18665E+02  4.148E-01  2.309E+00  3.690E-04  0.000E+00  3.375E-04
   1    4   74     1    74    2.7500E-01  3.3739E-04   2.7466E-01  0.000E+00  0.000E+00  0.000E+00  1.18365E+02  4.146E-01  2.309E+00  3.689E-04  0.000E+00  3.374E-04
   1    4   75     1    75    2.7466E-01  3.3725E-04   2.7433E-01  0.000E+00  0.000E+00  0.000E+00  1.18064E+02  4.144E-01  2.308E+00  3.688E-04  0.000E+00  3.373E-04
   1    4   76     1    76    2.7433E-01  3.3711E-04   2.7399E-01  0.000E+00  0.000E+00  0.000E+00  1.17764E+02  4.142E-01  2.308E+00  3.688E-04  0.000E+00  3.371E-04
   1    4   77     1    77    2.7399E-01  3.3698E-04   2.7365E-01  0.000E+00  0.000E+00  0.000E+00  1.17464E+02  4.140E-01  2.308E+00  3.687E-04  0.000E+00  3.370E-04
   1    4   78     1    78    2.7365E-01  3.3684E-04   2.7332E-01  0.000E+00  0.000E+00  0.000E+00  1.17164E+02  4.138E-01  2.308E+00  3.686E-04  0.000E+00  3.368E-04
   1    4   79     1    79    2.7332E-01  3.3671E-04   2.7298E-01  0.000E+00  0.000E+00  0.000E+00  1.16864E+02  4.136E-01  2.307E+00  3.686E-04  0.000E+00  3.367E-04
   1    4   80     1    80    2.7298E-01  3.3657E-04   2.7264E-01  0.000E+00  0.000E+00  0.000E+00  1.16563E+02  4.134E-01  2.307E+00  3.685E-04  0.000E+00  3.366E-04
   1    4   81     1    81    2.7264E-01  3.3643E-04   2.7231E-01  0.000E+00  0.000E+00  0.000E+00  1.16263E+02  4.132E-01  2.307E+00  3.684E-04  0.000E+00  3.364E-04
   1    4   82     1    82    2.7231E-01  3.3630E-04   2.7197E-01  0.000E+00  0.000E+00  0.000E+00  1.15963E+02  4.129E-01  2.307E+00  3.684E-04  0.000E+00  3.363E-04
   1    4   83     1    83    2.7197E-01  3.3616E-04   2.7163E-01  0.000E+00  0.000E+00  0.000E+00  1.15663E+02  4.127E-01  2.306E+00  3.683E-04  0.000E+00  3.362E-04
   1    4   84     1    84    2.7163E-01  3.3603E-04   2.7130E-01  0.000E+00  0.000E+00  0.000E+00  1.15363E+02  4.125E-01  2.306E+00  3.682E-04  0.000E+00  3.360E-04
   1    4   85     1    85    2.7130E-01  3.3589E-04   2.7096E-01  0.000E+00  0.000E+00  0.000E+00  1.15062E+02  4.123E-01  2.306E+00  3.682E-04  0.000E+00  3.359E-04
   1    4   86     1    86    2.7096E-01  3.3575E-04   2.7063E-01  0.000E+00  0.000E+00  0.000E+00  1.14762E+02  4.121E-01  2.306E+00  3.681E-04  0.000E+00  3.358E-04
   1    4   87     1    87    2.7063E-01  3.3562E-04   2.7029E-01  0.000E+00  0.000E+00  0.000E+00  1.14462E+02  4.119E-01  2.305E+00  3.680E-04  0.000E+00  3.356E-04
   1    4   88     1    88    2.7029E-01  3.3548E-04   2.6996E-01  0.000E+00  0.000E+00  0.000E+00  1.14162E+02  4.117E-01  2.305E+00  3.680E-04  0.000E+00  3.355E-04
   1    4   89     1    89    2.6996E-01  3.3535E-04   2.6962E-01  0.000E+00  0.000E+00  0.000E+00  1.13862E+02  4.115E-01  2.305E+00  3.679E-04  0.000E+00  3.353E-04
   1    4   90     1    90    2.6962E-01  3.3521E-04   2.6928E-01  0.000E+00  0.000E+00  0.000E+00  1.13561E+02  4.113E-01  2.305E+00  3.678E-04  0.000E+00  3.352E-04
   1    4   91     1    91    2.6928E-01  3.3507E-04   2.6895E-01  0.000E+00  0.000E+00  0.000E+00  1.13261E+02  4.111E-01  2.304E+00  3.678E-04  0.000E+00  3.351E-04
   1    4   92     1    92    2.6895E-01  3.3494E-04   2.6861E-01  0.000E+00  0.000E+00  0.000E+00  1.12961E+02  4.109E-01  2.304E+00  3.677E-04  0.000E+00  3.349E-04
   1    4   93     1    93    2.6861E-01  3.3480E-04   2.6828E-01  0.000E+00  0.000E+00  0.000E+00  1.12661E+02  4.107E-01  2.304E+00  3.676E-04  0.000E+00  3.348E-04
   1    4   94     1    94    2.6828E-01  3.3467E-04   2.6795E-01  0.000E+00  0.000E+00  0.000E+00  1.12360E+02  4.105E-01  2.304E+00  3.676E-04  0.000E+00  3.347E-04
   1    4   95     1    95    2.6795E-01  3.3453E-04   2.6761E-01  0.000E+00  0.000E+00  0.000E+00  1.12060E+02  4.103E-01  2.303E+00  3.675E-04  0.000E+00  3.345E-04
   1    4   96     1    96    2.6761E-01  3.3440E-04   2.6728E-01  0.000E+00  0.000E+00  0.000E+00  1.11760E+02  4.101E-01  2.303E+00  3.674E-04  0.000E+00  3.344E-04
   1    4   97     1    97    2.6728E-01  3.3426E-04   2.6694E-01  0.000E+00  0.000E+00  0.000E+00  1.11460E+02  4.099E-01  2.303E+00  3.674E-04  0.000E+00  3.343E-04
   1    4   98     1    98    2.6694E-01  3.3412E-04   2.6661E-01  0.000E+00  0.000E+00  0.000E+00  1.11160E+02  4.097E-01  2.303E+00  3.673E-04  0.000E+00  3.341E-04
   1    4   99     1    99    2.6661E-01  3.3399E-04   2.6627E-01  0.000E+00  0.000E+00  0.000E+00  1.10859E+02  4.095E-01  2.302E+00  3.672E-04  0.000E+00  3.340E-04
   1    4  100     1   100    2.6627E-01  3.3385E-04   2.6594E-01  0.000E+00  0.000E+00  0.000E+00  1.10559E+02  4.093E-01  2.302E+00  3.672E-04  0.000E+00  3.339E-04



1
  VOLUMETRIC BUDGET FOR UNSATURATED ZONE BENEATH STREAMS AT END OF TIME STEP    10 STRESS PERIOD   1
  ------------------------------------------------------------------------------------------------

    CUMULATIVE VOLUMES             L**3    RATES FOR THIS TIME STEP         L**3/T
    ------------------                     ------------------------


          STREAM LOSS =         8553.5381            STREAM LOSS =        3.4060E-02
    CHANGE IN STORAGE =         8553.5381      CHANGE IN STORAGE =        3.4060E-02
       RECHARGE TO GW =            0.0000         RECHARGE TO GW =            0.0000

             TOTAL IN =         8553.5381               TOTAL IN =        3.4060E-02

            TOTAL OUT =         8553.5381              TOTAL OUT =        3.4060E-02

             IN - OUT =            0.0000               IN - OUT =       -3.7253E-09

  PERCENT DISCREPANCY =            0.00      PERCENT DISCREPANCY =            -0.00



1
              HEAD IN LAYER 1 AT END OF TIME STEP 10 IN STRESS PERIOD 1
  ---------------------------------------------------------------------------

          1      2      3      4      5      6      7      8      9     10
         11     12     13     14     15     16     17     18     19     20
         21     22     23     24     25     26     27     28     29     30
         31     32     33     34     35     36     37     38     39     40
         41     42     43     44     45     46     47     48     49     50
         51     52     53     54     55     56     57     58     59     60
         61     62     63     64     65     66     67     68     69     70
         71     72     73     74     75     76     77     78     79     80
         81     82     83     84     85     86     87     88     89     90
         91     92     93     94     95     96     97     98     99    100
 .........................................................................
   1  104.0 104.0 104.0 104.0 104.0 104.0 104.0 104.0 104.0 104.0
      104.0 104.0 104.0 104.0 104.0 104.0 104.0 104.0 104.0 104.0
      104.0 104.0 104.0 104.0 104.0 104.0 104.0 104.0 104.0 104.0
      104.0 104.0 104.0 104.0 104.0 104.0 104.0 104.0 104.0 104.0
      104.0 104.0 104.0 104.0 103.9 103.7 103.4 102.5 101.0 98.9
      100.8 102.0 102.3 101.8 101.3 102.1 102.9 103.5 103.8 103.9
      104.0 104.0 104.0 104.0 104.0 104.0 104.0 104.0 104.0 104.0
      104.0 104.0 104.0 104.0 104.0 104.0 104.0 104.0 104.0 104.0
      104.0 104.0 103.9 103.8 103.7 103.5 103.3 103.1 102.9 102.6
      102.3 102.0 101.6 101.0 100.4 99.1 96.6 92.2 85.0 75.1
   2  104.0 104.0 104.0 104.0 104.0 104.0 104.0 104.0 104.0 104.0
      104.0 104.0 104.0 104.0 104.0 104.0 104.0 104.0 104.0 104.0
      104.0 104.0 104.0 104.0 104.0 104.0 104.0 104.0 104.0 104.0
      104.0 104.0 104.0 104.0 104.0 104.0 104.0 104.0 104.0 104.0
      104.0 104.0 104.0 104.0 103.9 103.7 103.4 102.5 100.8 97.9
      100.6 102.0 102.3 101.6 100.8 101.9 102.9 103.5 103.8 103.9
      104.0 104.0 104.0 104.0 104.0 104.0 104.0 104.0 104.0 104.0
      104.0 104.0 104.0 104.0 104.0 104.0 104.0 104.0 104.0 104.0
      104.0 104.0 103.9 103.8 103.7 103.5 103.3 103.1 102.9 102.6
      102.3 102.0 101.6 101.0 100.4 99.1 96.6 92.2 85.0 75.1
   3  104.0 104.0 104.0 104.0 104.0 104.0 104.0 104.0 104.0 104.0
      104.0 104.0 104.0 104.0 104.0 104.0 104.0 104.0 104.0 104.0
      104.0 104.0 104.0 104.0 104.0 104.0 104.0 104.0 104.0 104.0
      104.0 104.0 104.0 104.0 104.0 104.0 104.0 104.0 104.0 104.0
      104.0 104.0 104.0 104.0 103.9 103.8 103.4 102.6 100.7 95.3
      100.5 102.0 102.2 101.3 99.7 101.5 102.8 103.4 103.8 103.9
      104.0 104.0 104.0 104.0 104.0 104.0 104.0 104.0 104.0 104.0
      104.0 104.0 104.0 104.0 104.0 104.0 104.0 104.0 104.0 104.0
      104.0 104.0 103.9 103.8 103.7 103.5 103.3 103.1 102.9 102.6
      102.3 102.0 101.6 101.0 100.4 99.1 96.6 92.2 85.0 75.1
   4  104.0 104.0 104.0 104.0 104.0 104.0 104.0 104.0 104.0 104.0
      104.0 104.0 104.0 104.0 104.0 104.0 104.0 104.0 104.0 104.0
      104.0 104.0 104.0 104.0 104.0 104.0 104.0 104.0 104.0 104.0
      104.0 104.0 104.0 104.0 104.0 104.0 104.0 104.0 104.0 104.0
      104.0 104.0 104.0 104.0 103.9 103.8 103.4 102.7 101.1 97.9
      100.9 102.1 102.1 100.9 97.9 101.1 102.7 103.4 103.8 103.9
      104.0 104.0 104.0 104.0 104.0 104.0 104.0 104.0 104.0 104.0
      104.0 104.0 104.0 104.0 104.0 104.0 104.0 104.0 104.0 104.0
      104.0 104.0 103.9 103.8 103.7 103.5 103.3 103.1 102.9 102.6
      102.3 102.0 101.6 101.0 100.4 99.1 96.6 92.2 85.0 75.1
   5  104.0 104.0 104.0 104.0 104.0 104.0 104.0 104.0 104.0 104.0
      104.0 104.0 104.0 104.0 104.0 104.0 104.0 104.0 104.0 104.0
      104.0 104.0 104.0 104.0 104.0 104.0 104.0 104.0 104.0 104.0
      104.0 104.0 104.0 104.0 104.0 104.0 104.0 104.0 104.0 104.0
      104.0 104.0 104.0 104.0 103.9 103.8 103.4 102.8 101.5 99.7
      101.3 102.2 102.0 100.5 95.3 100.7 102.6 103.4 103.8 103.9
      104.0 104.0 104.0 104.0 104.0 104.0 104.0 104.0 104.0 104.0
      104.0 104.0 104.0 104.0 104.0 104.0 104.0 104.0 104.0 104.0
      104.0 104.0 103.9 103.8 103.7 103.5 103.3 103.1 102.9 102.6
      102.3 102.0 101.6 101.0 100.4 99.1 96.6 92.2 85.0 75.1
   6  104.0 104.0 104.0 104.0 104.0 104.0 104.0 104.0 104.0 104.0
      104.0 104.0 104.0 104.0 104.0 104.0 104.0 104.0 104.0 104.0
      104.0 104.0 104.0 104.0 104.0 104.0 104.0 104.0 104.0 104.0
      104.0 104.0 104.0 104.0 104.0 104.0 104.0 104.0 104.0 104.0
      104.0 104.0 104.0 104.0 103.9 103.8 103.5 102.9 101.9 100.8
      101.6 102.3 102.0 100.6 97.9 100.8 102.5 103.4 103.7 103.9
      104.0 104.0 104.0 104.0 104.0 104.0 104.0 104.0 104.0 104.0
      104.0 104.0 104.0 104.0 104.0 104.0 104.0 104.0 104.0 104.0
      104.0 104.0 103.9 103.8 103.7 103.5 103.3 103.1 102.9 102.6
      102.3 102.0 101.6 101.0 100.4 99.1 96.6 92.2 85.0 75.1
   7  104.0 104.0 104.0 104.0 104.0 104.0 104.0 104.0 104.0 104.0
      104.0 104.0 104.0 104.0 104.0 104.0 104.0 104.0 104.0 104.0
      104.0 104.0 104.0 104.0 104.0 104.0 104.0 104.0 104.0 104.0
      104.0 104.0 104.0 104.0 104.0 104.0 104.0 104.0 104.0 104.0
      104.0 104.0 104.0 104.0 103.9 103.8 103.5 102.9 102.1 101.3
      101.8 102.3 102.0 100.8 98.9 101.0 102.5 103.4 103.7 103.9
      104.0 104.0 104.0 104.0 104.0 104.0 104.0 104.0 104.0 104.0
      104.0 104.0 104.0 104.0 104.0 104.0 104.0 104.0 104.0 104.0
      104.0 104.0 103.9 103.8 103.7 103.5 103.3 103.1 102.9 102.6
      102.3 102.0 101.6 101.0 100.4 99.1 96.6 92.2 85.0 75.1

 HEAD WILL BE SAVED ON UNIT   51 AT END OF TIME STEP   10, STRESS PERIOD    1
1
  VOLUMETRIC BUDGET FOR ENTIRE MODEL AT END OF TIME STEP   10, STRESS PERIOD   1
  ------------------------------------------------------------------------------

     CUMULATIVE VOLUMES      L**3       RATES FOR THIS TIME STEP      L**3/T
     ------------------                 ------------------------

           IN:                                      IN:
           ---                                      ---
             STORAGE     =     2051264.8750               STORAGE     =           4.8762
       CONSTANT HEAD     =           0.0000         CONSTANT HEAD     =           0.0000
               WELLS     =           0.0000                 WELLS     =           0.0000
     HEAD DEP BOUNDS     =           0.0000       HEAD DEP BOUNDS     =           0.0000
      STREAM LEAKAGE     =           0.0000        STREAM LEAKAGE     =           0.0000

                TOTAL IN =     2051264.8750                  TOTAL IN =           4.8762

          OUT:                                     OUT:
          ----                                     ----
             STORAGE     =       5.5412E-08               STORAGE     =       1.5200E-13
       CONSTANT HEAD     =           0.0000         CONSTANT HEAD     =           0.0000
               WELLS     =      713216.1250                 WELLS     =           2.8400
     HEAD DEP BOUNDS     =     1338048.6250       HEAD DEP BOUNDS     =           2.0362
      STREAM LEAKAGE     =           0.0000        STREAM LEAKAGE     =           0.0000

               TOTAL OUT =     2051264.7500                 TOTAL OUT =           4.8762

                IN - OUT =           0.1250                  IN - OUT =           0.0000

     PERCENT DISCREPANCY =           0.00         PERCENT DISCREPANCY =           0.00






         TIME SUMMARY AT END OF TIME STEP   10 IN STRESS PERIOD    1
                    SECONDS     MINUTES      HOURS       DAYS        YEARS
                    -----------------------------------------------------------
   TIME STEP LENGTH  37155.      619.25      10.321     0.43004     1.17738E-03
 STRESS PERIOD TIME 2.51132E+05  4185.5      69.759      2.9066     7.95791E-03
         TOTAL TIME 2.51132E+05  4185.5      69.759      2.9066     7.95791E-03
1
 
 SOLVING FOR HEAD 
                                                   Max.-Head-Change                         Max.-Flux-Residual
  Residual-Control   Outer-Iter.   Inner-Iter.     Column Row Layer    Maximum-Head-Change  Column Row Layer    Maximum-Flux-Residual          L2-NORM 
          0                 1           3            98    7     1      -0.8946413770E+00      98    7    1        -0.8287824707E-01      0.4621037520E+00
          0                 2           3            98    7     1       0.8787070604E-01      98    7    1         0.8185673314E-02      0.4599773452E-01
          0                 3           2            98    1     1      -0.7844108728E-02      98    7    1        -0.7376902171E-03      0.4141817332E-02
          0                 4           2            98    1     1       0.6225490472E-03      98    1    1         0.5908095441E-04      0.3317430122E-03
          0                 5           1            98    2     1      -0.4336549806E-04      98    1    1        -0.4153364227E-05      0.2332127278E-04
          0                 6           1            98    2     1       0.2601691750E-05      98    6    1         0.2516762017E-06      0.1412166057E-05
          0                 7           1            98    2     1      -0.1313588834E-06      98    6    1        -0.1283300932E-07      0.7195129862E-07

    ------------------------------------------------
       NWT REQUIRED            7 OUTER ITERATIONS 
       AND A TOTAL OF         13 INNER ITERATIONS.
    ------------------------------------------------

 NO OUTPUT CONTROL FOR STRESS PERIOD    1   TIME STEP   11
 
 SOLVING FOR HEAD 
                                                   Max.-Head-Change                         Max.-Flux-Residual
  Residual-Control   Outer-Iter.   Inner-Iter.     Column Row Layer    Maximum-Head-Change  Column Row Layer    Maximum-Flux-Residual          L2-NORM 
          0                 1           3            98    7     1      -0.8484390357E+00      98    7    1        -0.7170299689E-01      0.4306681372E+00
          0                 2           2            98    1     1       0.8333739615E-01      98    7    1         0.7079607583E-02      0.4290963667E-01
          0                 3           2            98    1     1      -0.7439362865E-02      98    1    1        -0.6380305055E-03      0.3862757282E-02
          0                 4           2            98    1     1       0.5904273544E-03      98    1    1         0.5109917609E-04      0.3095728454E-03
          0                 5           1            98    2     1      -0.4112755519E-04      98    1    1        -0.3592252707E-05      0.2175159736E-04
          0                 6           1            98    2     1       0.2466924620E-05      98    2    1         0.2176757334E-06      0.1316784580E-05
          0                 7           1            98    2     1      -0.1245102407E-06      98    2    1        -0.1109931347E-07      0.6707076457E-07

    ------------------------------------------------
       NWT REQUIRED            7 OUTER ITERATIONS 
       AND A TOTAL OF         12 INNER ITERATIONS.
    ------------------------------------------------

 NO OUTPUT CONTROL FOR STRESS PERIOD    1   TIME STEP   12
 
 SOLVING FOR HEAD 
                                                   Max.-Head-Change                         Max.-Flux-Residual
  Residual-Control   Outer-Iter.   Inner-Iter.     Column Row Layer    Maximum-Head-Change  Column Row Layer    Maximum-Flux-Residual          L2-NORM 
          0                 1           3            98    7     1      -0.8029280962E+00      98    7    1        -0.6181784363E-01      0.4048729704E+00
          0                 2           2            98    1     1       0.7888376630E-01      98    7    1         0.6103729620E-02      0.4043908160E-01
          0                 3           2            98    1     1      -0.7041623303E-02      98    1    1        -0.5500784619E-03      0.3640762798E-02
          0                 4           2            98    1     1       0.5588617549E-03      98    1    1         0.4405523246E-04      0.2916146746E-03
          0                 5           1            98    2     1      -0.3892775289E-04      98    2    1        -0.3097069012E-05      0.2050024998E-04
          0                 6           1            98    2     1       0.2333844974E-05      98    6    1         0.1876699649E-06      0.1240342622E-05
          0                 7           1            98    2     1      -0.1177295612E-06      98    2    1        -0.9569312454E-08      0.6314069764E-07

    ------------------------------------------------
       NWT REQUIRED            7 OUTER ITERATIONS 
       AND A TOTAL OF         12 INNER ITERATIONS.
    ------------------------------------------------

 NO OUTPUT CONTROL FOR STRESS PERIOD    1   TIME STEP   13
 
 SOLVING FOR HEAD 
                                                   Max.-Head-Change                         Max.-Flux-Residual
  Residual-Control   Outer-Iter.   Inner-Iter.     Column Row Layer    Maximum-Head-Change  Column Row Layer    Maximum-Flux-Residual          L2-NORM 
          0                 1           3            97    1     1      -0.7661798433E+00      98    7    1        -0.5318240733E-01      0.3831630789E+00
          0                 2           2            97    7     1       0.7553454050E-01      98    7    1         0.5252564319E-02      0.3821000542E-01
          0                 3           2            97    7     1      -0.6740154259E-02      98    1    1        -0.4733554314E-03      0.3439914643E-02
          0                 4           2            97    7     1       0.5349554863E-03      98    1    1         0.3791069651E-04      0.2755286242E-03
          0                 5           1            97    7     1      -0.3726214250E-04      98    2    1        -0.2665109687E-05      0.1936940781E-04
          0                 6           1            97    7     1       0.2233444385E-05      98    6    1         0.1614949738E-06      0.1171763243E-05
          0                 7           1            97    7     1      -0.1126395966E-06      98    6    1        -0.8234653848E-08      0.5963977676E-07

    ------------------------------------------------
       NWT REQUIRED            7 OUTER ITERATIONS 
       AND A TOTAL OF         12 INNER ITERATIONS.
    ------------------------------------------------

 NO OUTPUT CONTROL FOR STRESS PERIOD    1   TIME STEP   14
 
 SOLVING FOR HEAD 
                                                   Max.-Head-Change                         Max.-Flux-Residual
  Residual-Control   Outer-Iter.   Inner-Iter.     Column Row Layer    Maximum-Head-Change  Column Row Layer    Maximum-Flux-Residual          L2-NORM 
          0                 1           3            97    1     1      -0.7531786740E+00      97    1    1        -0.4611887002E-01      0.3646553498E+00
          0                 2           3            97    1     1       0.7426479057E-01      91    3    1         0.6164741943E-02      0.3959904353E-01
          0                 3           2            97    7     1      -0.6627120265E-02      91    3    1        -0.5558183730E-03      0.3565563376E-02
          0                 4           2            97    7     1       0.5259823558E-03      91    3    1         0.4451314090E-04      0.2855876621E-03
          0                 5           1            97    7     1      -0.3663657433E-04      91    3    1        -0.3129280504E-05      0.2007654990E-04
          0                 6           1            97    7     1       0.2195334314E-05      91    5    1         0.1896217938E-06      0.1212782481E-05
          0                 7           1            97    7     1      -0.1106767332E-06      91    3    1        -0.9668848833E-08      0.6162970839E-07

    ------------------------------------------------
       NWT REQUIRED            7 OUTER ITERATIONS 
       AND A TOTAL OF         13 INNER ITERATIONS.
    ------------------------------------------------

 NO OUTPUT CONTROL FOR STRESS PERIOD    1   TIME STEP   15
 
 SOLVING FOR HEAD 
                                                   Max.-Head-Change                         Max.-Flux-Residual
  Residual-Control   Outer-Iter.   Inner-Iter.     Column Row Layer    Maximum-Head-Change  Column Row Layer    Maximum-Flux-Residual          L2-NORM 
          0                 1           3            52    1     1      -0.7558579937E+00      97    7    1        -0.4121415892E-01      0.3484052631E+00
          0                 2           2            53    7     1       0.7481660312E-01      97    7    1         0.4087875633E-02      0.3476453331E-01
          0                 3           2            53    7     1      -0.6673151720E-02      97    1    1        -0.3682327744E-03      0.3129535421E-02
          0                 4           2            53    7     1       0.5296624977E-03      97    1    1         0.2949287162E-04      0.2506696982E-03
          0                 5           1            53    7     1      -0.3689385738E-04      97    1    1        -0.2073336514E-05      0.1762184720E-04
          0                 6           1            53    7     1       0.2211832495E-05      97    1    1         0.1256359212E-06      0.1065491663E-05
          0                 7           1            53    7     1      -0.1115512252E-06      97    7    1        -0.6406189801E-08      0.5419590226E-07

    ------------------------------------------------
       NWT REQUIRED            7 OUTER ITERATIONS 
       AND A TOTAL OF         12 INNER ITERATIONS.
    ------------------------------------------------

 NO OUTPUT CONTROL FOR STRESS PERIOD    1   TIME STEP   16
 
 SOLVING FOR HEAD 
                                                   Max.-Head-Change                         Max.-Flux-Residual
  Residual-Control   Outer-Iter.   Inner-Iter.     Column Row Layer    Maximum-Head-Change  Column Row Layer    Maximum-Flux-Residual          L2-NORM 
          0                 1           3            52    2     1      -0.8113610286E+00      52    1    1        -0.3758610560E-01      0.3341325516E+00
          0                 2           2            52    2     1       0.8028961810E-01      52    1    1         0.3752907844E-02      0.3334635731E-01
          0                 3           2            52    2     1      -0.7161509729E-02      53    7    1        -0.3378179494E-03      0.3001809581E-02
          0                 4           2            52    2     1       0.5684225887E-03      53    7    1         0.2705877775E-04      0.2404393008E-03
          0                 5           1            52    2     1      -0.3959262485E-04      53    7    1        -0.1902208624E-05      0.1690263593E-04
          0                 6           1            52    3     1       0.2372947865E-05      53    7    1         0.1152663027E-06      0.1021382389E-05
          0                 7           1            52    3     1      -0.1196558973E-06      53    7    1        -0.5877440312E-08      0.5191926390E-07

    ------------------------------------------------
       NWT REQUIRED            7 OUTER ITERATIONS 
       AND A TOTAL OF         12 INNER ITERATIONS.
    ------------------------------------------------

 NO OUTPUT CONTROL FOR STRESS PERIOD    1   TIME STEP   17
 
 SOLVING FOR HEAD 
                                                   Max.-Head-Change                         Max.-Flux-Residual
  Residual-Control   Outer-Iter.   Inner-Iter.     Column Row Layer    Maximum-Head-Change  Column Row Layer    Maximum-Flux-Residual          L2-NORM 
          0                 1           3            52    2     1      -0.8685659652E+00      52    2    1        -0.3667920363E-01      0.3214568517E+00
          0                 2           2            52    2     1       0.8592912872E-01      52    2    1         0.3661169943E-02      0.3215530892E-01
          0                 3           2            52    2     1      -0.7664744906E-02      52    2    1        -0.3295717464E-03      0.2894554784E-02
          0                 4           2            52    2     1       0.6083640086E-03      52    2    1         0.2639817547E-04      0.2318487984E-03
          0                 5           1            52    2     1      -0.4237357361E-04      52    2    1        -0.1855769433E-05      0.1629873814E-04
          0                 6           1            52    3     1       0.2538771030E-05      52    2    1         0.1124522910E-06      0.9840656581E-06
          0                 7           1            52    3     1      -0.1279673004E-06      52    2    1        -0.5733934216E-08      0.4997353876E-07

    ------------------------------------------------
       NWT REQUIRED            7 OUTER ITERATIONS 
       AND A TOTAL OF         12 INNER ITERATIONS.
    ------------------------------------------------

 NO OUTPUT CONTROL FOR STRESS PERIOD    1   TIME STEP   18
 
 SOLVING FOR HEAD 
                                                   Max.-Head-Change                         Max.-Flux-Residual
  Residual-Control   Outer-Iter.   Inner-Iter.     Column Row Layer    Maximum-Head-Change  Column Row Layer    Maximum-Flux-Residual          L2-NORM 
          0                 1           3            52    2     1      -0.9277310437E+00      52    2    1        -0.3569658805E-01      0.3100540072E+00
          0                 2           2            52    2     1       0.9176012723E-01      90    2    1         0.4898735694E-02      0.3335185467E-01
          0                 3           2            52    2     1      -0.8185078193E-02      90    6    1        -0.4420385523E-03      0.3003116998E-02
          0                 4           2            52    2     1       0.6496617895E-03      90    2    1         0.3539809230E-04      0.2405372608E-03
          0                 5           1            52    2     1      -0.4524385556E-04      90    2    1        -0.2488509505E-05      0.1690954481E-04
          0                 6           1            53    7     1       0.2705295280E-05      90    6    1         0.1507935643E-06      0.1017537701E-05
          0                 7           1            53    7     1      -0.1360235311E-06      90    2    1        -0.7688981896E-08      0.5147738304E-07

    ------------------------------------------------
       NWT REQUIRED            7 OUTER ITERATIONS 
       AND A TOTAL OF         12 INNER ITERATIONS.
    ------------------------------------------------

 NO OUTPUT CONTROL FOR STRESS PERIOD    1   TIME STEP   19
 
 SOLVING FOR HEAD 
                                                   Max.-Head-Change                         Max.-Flux-Residual
  Residual-Control   Outer-Iter.   Inner-Iter.     Column Row Layer    Maximum-Head-Change  Column Row Layer    Maximum-Flux-Residual          L2-NORM 
          0                 1           3            52    2     1      -0.9891701191E+00      52    2    1        -0.3466282422E-01      0.2994098034E+00
          0                 2           2            52    2     1       0.9781329597E-01      52    2    1         0.3457852305E-02      0.2988707977E-01
          0                 3           2            52    2     1      -0.8725257030E-02      52    2    1        -0.3112895495E-03      0.2690348087E-02
          0                 4           2            52    2     1       0.6925345733E-03      52    2    1         0.2493364066E-04      0.2154923378E-03
          0                 5           1            52    2     1      -0.4823331277E-04      52    2    1        -0.1752814889E-05      0.1514888970E-04
          0                 6           1            53    5     1       0.2887168158E-05      52    2    1         0.1062136477E-06      0.9137474817E-06
          0                 7           1            53    5     1      -0.1453622543E-06      52    2    1        -0.5415845550E-08      0.4635058478E-07

    ------------------------------------------------
       NWT REQUIRED            7 OUTER ITERATIONS 
       AND A TOTAL OF         12 INNER ITERATIONS.
    ------------------------------------------------

 NO OUTPUT CONTROL FOR STRESS PERIOD    1   TIME STEP   20
 
 SOLVING FOR HEAD 
                                                   Max.-Head-Change                         Max.-Flux-Residual
  Residual-Control   Outer-Iter.   Inner-Iter.     Column Row Layer    Maximum-Head-Change  Column Row Layer    Maximum-Flux-Residual          L2-NORM 
          0                 1           3            52    2     1      -0.1053205462E+01      52    2    1        -0.3359933910E-01      0.2897003657E+00
          0                 2           2            52    2     1       0.1041200094E+00      52    2    1         0.3350875857E-02      0.2891767430E-01
          0                 3           2            52    2     1      -0.9288077659E-02      52    2    1        -0.3016678907E-03      0.2603081016E-02
          0                 4           2            52    2     1       0.7372035981E-03      52    2    1         0.2416289609E-04      0.2085020624E-03
          0                 5           1            52    2     1      -0.5134307894E-04      52    2    1        -0.1698632609E-05      0.1465745427E-04
          0                 6           1            52    3     1       0.3072726064E-05      52    3    1         0.1029334307E-06      0.8831713896E-06
          0                 7           1            53    4     1      -0.1546837647E-06      52    3    1        -0.5249457757E-08      0.4475034935E-07

    ------------------------------------------------
       NWT REQUIRED            7 OUTER ITERATIONS 
       AND A TOTAL OF         12 INNER ITERATIONS.
    ------------------------------------------------

 NO OUTPUT CONTROL FOR STRESS PERIOD    1   TIME STEP   21
 
 SOLVING FOR HEAD 
                                                   Max.-Head-Change                         Max.-Flux-Residual
  Residual-Control   Outer-Iter.   Inner-Iter.     Column Row Layer    Maximum-Head-Change  Column Row Layer    Maximum-Flux-Residual          L2-NORM 
          0                 1           3            52    2     1      -0.1120169729E+01      52    2    1        -0.3252301543E-01      0.2807711537E+00
          0                 2           2            52    2     1       0.1107125480E+00      53    6    1         0.3242744489E-02      0.2803489991E-01
          0                 3           2            52    2     1      -0.9876433680E-02      52    2    1        -0.2919411257E-03      0.2523600588E-02
          0                 4           2            52    2     1       0.7838991679E-03      52    2    1         0.2338374185E-04      0.2025132956E-03
          0                 5           1            52    2     1      -0.5459407367E-04      52    2    1        -0.1643859072E-05      0.1423643037E-04
          0                 6           1            52    3     1       0.3266684856E-05      52    3    1         0.9972849568E-07      0.8566514954E-06
          0                 7           1            53    4     1      -0.1644466059E-06      52    3    1        -0.5093838240E-08      0.4334381943E-07

    ------------------------------------------------
       NWT REQUIRED            7 OUTER ITERATIONS 
       AND A TOTAL OF         12 INNER ITERATIONS.
    ------------------------------------------------

 NO OUTPUT CONTROL FOR STRESS PERIOD    1   TIME STEP   22
 
 SOLVING FOR HEAD 
                                                   Max.-Head-Change                         Max.-Flux-Residual
  Residual-Control   Outer-Iter.   Inner-Iter.     Column Row Layer    Maximum-Head-Change  Column Row Layer    Maximum-Flux-Residual          L2-NORM 
          0                 1           3            53    6     1      -0.1190409138E+01      52    2    1        -0.3144703572E-01      0.2724768589E+00
          0                 2           2            52    2     1       0.1176243567E+00      53    6    1         0.3134769382E-02      0.2719580560E-01
          0                 3           2            52    2     1      -0.1049329335E-01      52    2    1        -0.2822273636E-03      0.2448091143E-02
          0                 4           2            52    2     1       0.8328553939E-03      52    2    1         0.2260563765E-04      0.1960866282E-03
          0                 5           1            52    2     1      -0.5800246914E-04      52    2    1        -0.1589159300E-05      0.1378459440E-04
          0                 6           1            52    3     1       0.3471102837E-05      52    3    1         0.9673580692E-07      0.8283880303E-06
          0                 7           1            53    4     1      -0.1748068918E-06      52    3    1        -0.4960451605E-08      0.4186187814E-07

    ------------------------------------------------
       NWT REQUIRED            7 OUTER ITERATIONS 
       AND A TOTAL OF         12 INNER ITERATIONS.
    ------------------------------------------------

 NO OUTPUT CONTROL FOR STRESS PERIOD    1   TIME STEP   23
 
 SOLVING FOR HEAD 
                                                   Max.-Head-Change                         Max.-Flux-Residual
  Residual-Control   Outer-Iter.   Inner-Iter.     Column Row Layer    Maximum-Head-Change  Column Row Layer    Maximum-Flux-Residual          L2-NORM 
          0                 1           3            53    6     1      -0.1264289361E+01      53    6    1        -0.3038160461E-01      0.2646622728E+00
          0                 2           3            53    6     1       0.1248915110E+00      53    6    1         0.3027967167E-02      0.2641370807E-01
          0                 3           2            52    2     1      -0.1114197760E-01      53    6    1        -0.2726181589E-03      0.2377721061E-02
          0                 4           2            52    2     1       0.8843364338E-03      52    2    1         0.2183591581E-04      0.1904491318E-03
          0                 5           1            52    2     1      -0.6158719746E-04      52    2    1        -0.1535048757E-05      0.1338821696E-04
          0                 6           1            52    3     1       0.3686866233E-05      52    3    1         0.9384593014E-07      0.8031385855E-06
          0                 7           1            52    3     1      -0.1856301023E-06      52    3    1        -0.4836063994E-08      0.4051955384E-07

    ------------------------------------------------
       NWT REQUIRED            7 OUTER ITERATIONS 
       AND A TOTAL OF         13 INNER ITERATIONS.
    ------------------------------------------------

 NO OUTPUT CONTROL FOR STRESS PERIOD    1   TIME STEP   24
 
 SOLVING FOR HEAD 
                                                   Max.-Head-Change                         Max.-Flux-Residual
  Residual-Control   Outer-Iter.   Inner-Iter.     Column Row Layer    Maximum-Head-Change  Column Row Layer    Maximum-Flux-Residual          L2-NORM 
          0                 1           3            53    6     1      -0.1342196129E+01      53    6    1        -0.2933457370E-01      0.2573525113E+00
          0                 2           3            53    6     1       0.1325493408E+00      53    6    1         0.2923121103E-02      0.2568161585E-01
          0                 3           2            53    6     1      -0.1182553461E-01      53    6    1        -0.2631841335E-03      0.2311835445E-02
          0                 4           2            53    6     1       0.9385820668E-03      52    2    1         0.2108023099E-04      0.1851702708E-03
          0                 5           1            52    2     1      -0.6536303591E-04      52    2    1        -0.1481924951E-05      0.1301700764E-04
          0                 6           1            53    4     1       0.3913176383E-05      52    3    1         0.9087931119E-07      0.7790099648E-06
          0                 7           1            53    4     1      -0.1971753021E-06      52    3    1        -0.4699327150E-08      0.3921969285E-07

    ------------------------------------------------
       NWT REQUIRED            7 OUTER ITERATIONS 
       AND A TOTAL OF         13 INNER ITERATIONS.
    ------------------------------------------------

 NO OUTPUT CONTROL FOR STRESS PERIOD    1   TIME STEP   25
 
 SOLVING FOR HEAD 
                                                   Max.-Head-Change                         Max.-Flux-Residual
  Residual-Control   Outer-Iter.   Inner-Iter.     Column Row Layer    Maximum-Head-Change  Column Row Layer    Maximum-Flux-Residual          L2-NORM 
          0                 1           3            55    5     1      -0.1426159172E+01      53    6    1        -0.2831190835E-01      0.2504575974E+00
          0                 2           3            53    6     1       0.1406382627E+00      53    6    1         0.2820829664E-02      0.2499070753E-01
          0                 3           2            52    2     1      -0.1254761602E-01      53    6    1        -0.2539791335E-03      0.2249656468E-02
          0                 4           2            52    2     1       0.9958714104E-03      52    2    1         0.2034290171E-04      0.1801873574E-03
          0                 5           1            52    3     1      -0.6935182193E-04      52    2    1        -0.1430091473E-05      0.1266652767E-04
          0                 6           1            52    3     1       0.4152711980E-05      52    3    1         0.8815966979E-07      0.7558119654E-06
          0                 7           1            53    4     1      -0.2092862148E-06      52    3    1        -0.4590045677E-08      0.3796784106E-07

    ------------------------------------------------
       NWT REQUIRED            7 OUTER ITERATIONS 
       AND A TOTAL OF         13 INNER ITERATIONS.
    ------------------------------------------------

 NO OUTPUT CONTROL FOR STRESS PERIOD    1   TIME STEP   26
 
 SOLVING FOR HEAD 
                                                   Max.-Head-Change                         Max.-Flux-Residual
  Residual-Control   Outer-Iter.   Inner-Iter.     Column Row Layer    Maximum-Head-Change  Column Row Layer    Maximum-Flux-Residual          L2-NORM 
          0                 1           3            55    5     1      -0.1523305714E+01      55    5    1        -0.2736849157E-01      0.2439287358E+00
          0                 2           3            53    6     1       0.1492011732E+00      53    6    1         0.2721548353E-02      0.2433625724E-01
          0                 3           2            52    2     1      -0.1331207552E-01      53    6    1        -0.2450442298E-03      0.2190756356E-02
          0                 4           2            52    2     1       0.1056516898E-02      52    2    1         0.1962720934E-04      0.1754659096E-03
          0                 5           1            52    3     1      -0.7357875012E-04      52    2    1        -0.1379779007E-05      0.1233433426E-04
          0                 6           1            53    4     1       0.4411766261E-05      52    3    1         0.8588251887E-07      0.7337536960E-06
          0                 7           1            53    4     1      -0.2227355799E-06      52    3    1        -0.4521499619E-08      0.3679549386E-07

    ------------------------------------------------
       NWT REQUIRED            7 OUTER ITERATIONS 
       AND A TOTAL OF         13 INNER ITERATIONS.
    ------------------------------------------------

 NO OUTPUT CONTROL FOR STRESS PERIOD    1   TIME STEP   27
 
 SOLVING FOR HEAD 
                                                   Max.-Head-Change                         Max.-Flux-Residual
  Residual-Control   Outer-Iter.   Inner-Iter.     Column Row Layer    Maximum-Head-Change  Column Row Layer    Maximum-Flux-Residual          L2-NORM 
          0                 1           3            55    5     1      -0.1627032375E+01      55    5    1        -0.2657985315E-01      0.2377275848E+00
          0                 2           3            55    5     1       0.1589669343E+00      53    6    1         0.2625625314E-02      0.2371463272E-01
          0                 3           2            55    5     1      -0.1419685738E-01      53    6    1        -0.2364107496E-03      0.2134804964E-02
          0                 4           2            55    5     1       0.1126608754E-02      52    2    1         0.1893566372E-04      0.1709788050E-03
          0                 5           1            55    5     1      -0.7844787745E-04      52    2    1        -0.1331164016E-05      0.1201846501E-04
          0                 6           1            53    4     1       0.4690426465E-05      52    3    1         0.8391287665E-07      0.7125072166E-06
          0                 7           1            53    4     1      -0.2373753055E-06      52    3    1        -0.4481101712E-08      0.3568632088E-07

    ------------------------------------------------
       NWT REQUIRED            7 OUTER ITERATIONS 
       AND A TOTAL OF         13 INNER ITERATIONS.
    ------------------------------------------------

 NO OUTPUT CONTROL FOR STRESS PERIOD    1   TIME STEP   28
 
 SOLVING FOR HEAD 
                                                   Max.-Head-Change                         Max.-Flux-Residual
  Residual-Control   Outer-Iter.   Inner-Iter.     Column Row Layer    Maximum-Head-Change  Column Row Layer    Maximum-Flux-Residual          L2-NORM 
          0                 1           3            55    5     1      -0.1737998339E+01      55    5    1        -0.2581236787E-01      0.2318226971E+00
          0                 2           3            55    5     1       0.1694890510E+00      53    6    1         0.2533327158E-02      0.2312299236E-01
          0                 3           2            55    5     1      -0.1513904837E-01      53    6    1        -0.2281026892E-03      0.2081541869E-02
          0                 4           2            55    5     1       0.1201300791E-02      52    2    1         0.1827018364E-04      0.1667042804E-03
          0                 5           1            55    5     1      -0.8365000246E-04      52    2    1        -0.1284381359E-05      0.1171731577E-04
          0                 6           1            55    5     1       0.4995967165E-05      52    3    1         0.8229113035E-07      0.6920347803E-06
          0                 7           1            53    4     1      -0.2534175985E-06      52    3    1        -0.4472656912E-08      0.3465524472E-07

    ------------------------------------------------
       NWT REQUIRED            7 OUTER ITERATIONS 
       AND A TOTAL OF         13 INNER ITERATIONS.
    ------------------------------------------------

 NO OUTPUT CONTROL FOR STRESS PERIOD    1   TIME STEP   29
 
 SOLVING FOR HEAD 
                                                   Max.-Head-Change                         Max.-Flux-Residual
  Residual-Control   Outer-Iter.   Inner-Iter.     Column Row Layer    Maximum-Head-Change  Column Row Layer    Maximum-Flux-Residual          L2-NORM 
          0                 1           3            55    5     1      -0.1857019915E+01      55    5    1        -0.2507264673E-01      0.2261901337E+00
          0                 2           3            55    5     1       0.1807011454E+00      55    6    1         0.2449942951E-02      0.2255936948E-01
          0                 3           2            55    5     1      -0.1614349681E-01      55    6    1        -0.2203536877E-03      0.2030783899E-02
          0                 4           2            55    5     1       0.1280885927E-02      50    2    1         0.1765139220E-04      0.1626262531E-03
          0                 5           1            55    5     1      -0.8918707615E-04      50    2    1        -0.1240868119E-05      0.1142964105E-04
          0                 6           1            55    5     1       0.5328699601E-05      52    3    1         0.8077866553E-07      0.6718628902E-06
          0                 7           1            53    4     1      -0.2703715027E-06      52    3    1        -0.4465142922E-08      0.3367650379E-07

    ------------------------------------------------
       NWT REQUIRED            7 OUTER ITERATIONS 
       AND A TOTAL OF         13 INNER ITERATIONS.
    ------------------------------------------------

 OUTPUT CONTROL FOR STRESS PERIOD    1   TIME STEP   30
    PRINT HEAD FOR ALL LAYERS
    SAVE HEAD FOR ALL LAYERS
    PRINT BUDGET
    SAVE BUDGET

            WELLS   PERIOD    1   STEP  30
 WELL      1   LAYER   1   ROW     3   COL    50   RATE    -1.42000    
 WELL      2   LAYER   1   ROW     5   COL    55   RATE    -1.42000    

  HEAD DEP BOUNDS   PERIOD    1   STEP    30
 BOUNDARY      1   LAYER   1   ROW     1   COL   100   RATE   -0.101049    
 BOUNDARY      2   LAYER   1   ROW     2   COL   100   RATE   -0.101013    
 BOUNDARY      3   LAYER   1   ROW     3   COL   100   RATE   -9.991057E-02
 BOUNDARY      4   LAYER   1   ROW     4   COL   100   RATE   -6.984172E-02
 BOUNDARY      5   LAYER   1   ROW     5   COL   100   RATE   -9.991057E-02
 BOUNDARY      6   LAYER   1   ROW     6   COL   100   RATE   -0.101013    
 BOUNDARY      7   LAYER   1   ROW     7   COL   100   RATE   -0.101049    



 STREAM LISTING     PERIOD      1   STEP       30

 LAYER ROW COL. STREAM  RCH.   FLOW INTO    STREAM     FLOW OUT OF   OVRLND.    DIRECT     STREAM      STREAM      STREAM     STREAM  STREAMBED   FLOW TO   CHNG. UNSAT. 
                SEG.NO.  NO.   STRM. RCH.    LOSS       STRM. RCH.   RUNOFF     PRECIP       ET         HEAD        DEPTH      WIDTH  CONDCTNC.   WAT. TAB.

   1    4    1     1     1    3.0000E-01  3.4737E-04   2.9965E-01  0.000E+00  0.000E+00  0.000E+00  1.40279E+02  4.294E-01  2.326E+00  3.737E-04  0.000E+00  3.474E-04
   1    4    2     1     2    2.9965E-01  3.4724E-04   2.9931E-01  0.000E+00  0.000E+00  0.000E+00  1.39979E+02  4.292E-01  2.326E+00  3.737E-04  0.000E+00  3.472E-04
   1    4    3     1     3    2.9931E-01  3.4710E-04   2.9896E-01  0.000E+00  0.000E+00  0.000E+00  1.39679E+02  4.290E-01  2.326E+00  3.736E-04  0.000E+00  3.471E-04
   1    4    4     1     4    2.9896E-01  3.4696E-04   2.9861E-01  0.000E+00  0.000E+00  0.000E+00  1.39379E+02  4.288E-01  2.326E+00  3.735E-04  0.000E+00  3.470E-04
   1    4    5     1     5    2.9861E-01  3.4682E-04   2.9826E-01  0.000E+00  0.000E+00  0.000E+00  1.39079E+02  4.286E-01  2.325E+00  3.735E-04  0.000E+00  3.468E-04
   1    4    6     1     6    2.9826E-01  3.4669E-04   2.9792E-01  0.000E+00  0.000E+00  0.000E+00  1.38778E+02  4.284E-01  2.325E+00  3.734E-04  0.000E+00  3.467E-04
   1    4    7     1     7    2.9792E-01  3.4655E-04   2.9757E-01  0.000E+00  0.000E+00  0.000E+00  1.38478E+02  4.282E-01  2.325E+00  3.733E-04  0.000E+00  3.466E-04
   1    4    8     1     8    2.9757E-01  3.4641E-04   2.9722E-01  0.000E+00  0.000E+00  0.000E+00  1.38178E+02  4.280E-01  2.325E+00  3.733E-04  0.000E+00  3.464E-04
   1    4    9     1     9    2.9722E-01  3.4628E-04   2.9688E-01  0.000E+00  0.000E+00  0.000E+00  1.37878E+02  4.278E-01  2.324E+00  3.732E-04  0.000E+00  3.463E-04
   1    4   10     1    10    2.9688E-01  3.4614E-04   2.9653E-01  0.000E+00  0.000E+00  0.000E+00  1.37578E+02  4.276E-01  2.324E+00  3.732E-04  0.000E+00  3.461E-04
   1    4   11     1    11    2.9653E-01  3.4600E-04   2.9619E-01  0.000E+00  0.000E+00  0.000E+00  1.37277E+02  4.274E-01  2.324E+00  3.731E-04  0.000E+00  3.460E-04
   1    4   12     1    12    2.9619E-01  3.4586E-04   2.9584E-01  0.000E+00  0.000E+00  0.000E+00  1.36977E+02  4.272E-01  2.324E+00  3.730E-04  0.000E+00  3.459E-04
   1    4   13     1    13    2.9584E-01  3.4573E-04   2.9549E-01  0.000E+00  0.000E+00  0.000E+00  1.36677E+02  4.270E-01  2.323E+00  3.730E-04  0.000E+00  3.457E-04
   1    4   14     1    14    2.9549E-01  3.4559E-04   2.9515E-01  0.000E+00  0.000E+00  0.000E+00  1.36377E+02  4.268E-01  2.323E+00  3.729E-04  0.000E+00  3.456E-04
   1    4   15     1    15    2.9515E-01  3.4545E-04   2.9480E-01  0.000E+00  0.000E+00  0.000E+00  1.36077E+02  4.266E-01  2.323E+00  3.728E-04  0.000E+00  3.455E-04
   1    4   16     1    16    2.9480E-01  3.4531E-04   2.9446E-01  0.000E+00  0.000E+00  0.000E+00  1.35776E+02  4.264E-01  2.323E+00  3.728E-04  0.000E+00  3.453E-04
   1    4   17     1    17    2.9446E-01  3.4518E-04   2.9411E-01  0.000E+00  0.000E+00  0.000E+00  1.35476E+02  4.262E-01  2.322E+00  3.727E-04  0.000E+00  3.452E-04
   1    4   18     1    18    2.9411E-01  3.4504E-04   2.9377E-01  0.000E+00  0.000E+00  0.000E+00  1.35176E+02  4.260E-01  2.322E+00  3.726E-04  0.000E+00  3.450E-04
   1    4   19     1    19    2.9377E-01  3.4490E-04   2.9342E-01  0.000E+00  0.000E+00  0.000E+00  1.34876E+02  4.258E-01  2.322E+00  3.726E-04  0.000E+00  3.449E-04
   1    4   20     1    20    2.9342E-01  3.4477E-04   2.9308E-01  0.000E+00  0.000E+00  0.000E+00  1.34576E+02  4.256E-01  2.322E+00  3.725E-04  0.000E+00  3.448E-04
   1    4   21     1    21    2.9308E-01  3.4463E-04   2.9273E-01  0.000E+00  0.000E+00  0.000E+00  1.34275E+02  4.254E-01  2.321E+00  3.724E-04  0.000E+00  3.446E-04
   1    4   22     1    22    2.9273E-01  3.4449E-04   2.9239E-01  0.000E+00  0.000E+00  0.000E+00  1.33975E+02  4.252E-01  2.321E+00  3.724E-04  0.000E+00  3.445E-04
   1    4   23     1    23    2.9239E-01  3.4435E-04   2.9205E-01  0.000E+00  0.000E+00  0.000E+00  1.33675E+02  4.250E-01  2.321E+00  3.723E-04  0.000E+00  3.444E-04
   1    4   24     1    24    2.9205E-01  3.4422E-04   2.9170E-01  0.000E+00  0.000E+00  0.000E+00  1.33375E+02  4.248E-01  2.321E+00  3.722E-04  0.000E+00  3.442E-04
   1    4   25     1    25    2.9170E-01  3.4408E-04   2.9136E-01  0.000E+00  0.000E+00  0.000E+00  1.33075E+02  4.246E-01  2.320E+00  3.722E-04  0.000E+00  3.441E-04
   1    4   26     1    26    2.9136E-01  3.4394E-04   2.9101E-01  0.000E+00  0.000E+00  0.000E+00  1.32774E+02  4.244E-01  2.320E+00  3.721E-04  0.000E+00  3.439E-04
   1    4   27     1    27    2.9101E-01  3.4381E-04   2.9067E-01  0.000E+00  0.000E+00  0.000E+00  1.32474E+02  4.242E-01  2.320E+00  3.720E-04  0.000E+00  3.438E-04
   1    4   28     1    28    2.9067E-01  3.4367E-04   2.9033E-01  0.000E+00  0.000E+00  0.000E+00  1.32174E+02  4.240E-01  2.320E+00  3.720E-04  0.000E+00  3.437E-04
   1    4   29     1    29    2.9033E-01  3.4353E-04   2.8998E-01  0.000E+00  0.000E+00  0.000E+00  1.31874E+02  4.237E-01  2.319E+00  3.719E-04  0.000E+00  3.435E-04
   1    4   30     1    30    2.8998E-01  3.4339E-04   2.8964E-01  0.000E+00  0.000E+00  0.000E+00  1.31574E+02  4.235E-01  2.319E+00  3.718E-04  0.000E+00  3.434E-04
   1    4   31     1    31    2.8964E-01  3.4326E-04   2.8930E-01  0.000E+00  0.000E+00  0.000E+00  1.31273E+02  4.233E-01  2.319E+00  3.718E-04  0.000E+00  3.433E-04
   1    4   32     1    32    2.8930E-01  3.4312E-04   2.8895E-01  0.000E+00  0.000E+00  0.000E+00  1.30973E+02  4.231E-01  2.319E+00  3.717E-04  0.000E+00  3.431E-04
   1    4   33     1    33    2.8895E-01  3.4298E-04   2.8861E-01  0.000E+00  0.000E+00  0.000E+00  1.30673E+02  4.229E-01  2.319E+00  3.716E-04  0.000E+00  3.430E-04
   1    4   34     1    34    2.8861E-01  3.4285E-04   2.8827E-01  0.000E+00  0.000E+00  0.000E+00  1.30373E+02  4.227E-01  2.318E+00  3.716E-04  0.000E+00  3.428E-04
   1    4   35     1    35    2.8827E-01  3.4271E-04   2.8792E-01  0.000E+00  0.000E+00  0.000E+00  1.30073E+02  4.225E-01  2.318E+00  3.715E-04  0.000E+00  3.427E-04
   1    4   36     1    36    2.8792E-01  3.4257E-04   2.8758E-01  0.000E+00  0.000E+00  0.000E+00  1.29772E+02  4.223E-01  2.318E+00  3.714E-04  0.000E+00  3.426E-04
   1    4   37     1    37    2.8758E-01  3.4244E-04   2.8724E-01  0.000E+00  0.000E+00  0.000E+00  1.29472E+02  4.221E-01  2.318E+00  3.714E-04  0.000E+00  3.424E-04
   1    4   38     1    38    2.8724E-01  3.4230E-04   2.8690E-01  0.000E+00  0.000E+00  0.000E+00  1.29172E+02  4.219E-01  2.317E+00  3.713E-04  0.000E+00  3.423E-04
   1    4   39     1    39    2.8690E-01  3.4216E-04   2.8655E-01  0.000E+00  0.000E+00  0.000E+00  1.28872E+02  4.217E-01  2.317E+00  3.712E-04  0.000E+00  3.422E-04
   1    4   40     1    40    2.8655E-01  3.4203E-04   2.8621E-01  0.000E+00  0.000E+00  0.000E+00  1.28572E+02  4.215E-01  2.317E+00  3.712E-04  0.000E+00  3.420E-04
   1    4   41     1    41    2.8621E-01  3.4189E-04   2.8587E-01  0.000E+00  0.000E+00  0.000E+00  1.28271E+02  4.213E-01  2.317E+00  3.711E-04  0.000E+00  3.419E-04
   1    4   42     1    42    2.8587E-01  3.4175E-04   2.8553E-01  0.000E+00  0.000E+00  0.000E+00  1.27971E+02  4.211E-01  2.316E+00  3.710E-04  0.000E+00  3.418E-04
   1    4   43     1    43    2.8553E-01  3.4162E-04   2.8519E-01  0.000E+00  0.000E+00  0.000E+00  1.27671E+02  4.209E-01  2.316E+00  3.710E-04  0.000E+00  3.416E-04
   1    4   44     1    44    2.8519E-01  3.4148E-04   2.8485E-01  0.000E+00  0.000E+00  0.000E+00  1.27371E+02  4.207E-01  2.316E+00  3.709E-04  0.000E+00  3.415E-04
   1    4   45     1    45    2.8485E-01  3.4134E-04   2.8450E-01  0.000E+00  0.000E+00  0.000E+00  1.27070E+02  4.205E-01  2.316E+00  3.708E-04  0.000E+00  3.413E-04
   1    4   46     1    46    2.8450E-01  3.4121E-04   2.8416E-01  0.000E+00  0.000E+00  0.000E+00  1.26770E+02  4.203E-01  2.315E+00  3.708E-04  0.000E+00  3.412E-04
   1    4   47     1    47    2.8416E-01  3.4107E-04   2.8382E-01  0.000E+00  0.000E+00  0.000E+00  1.26470E+02  4.201E-01  2.315E+00  3.707E-04  0.000E+00  3.411E-04
   1    4   48     1    48    2.8382E-01  3.4093E-04   2.8348E-01  0.000E+00  0.000E+00  0.000E+00  1.26170E+02  4.199E-01  2.315E+00  3.706E-04  0.000E+00  3.409E-04
   1    4   49     1    49    2.8348E-01  3.4080E-04   2.8314E-01  0.000E+00  0.000E+00  0.000E+00  1.25870E+02  4.197E-01  2.315E+00  3.706E-04  0.000E+00  3.408E-04
   1    4   50     1    50    2.8314E-01  3.4066E-04   2.8280E-01  0.000E+00  0.000E+00  0.000E+00  1.25569E+02  4.195E-01  2.314E+00  3.705E-04  0.000E+00  3.407E-04
   1    4   51     1    51    2.8280E-01  3.4052E-04   2.8246E-01  0.000E+00  0.000E+00  0.000E+00  1.25269E+02  4.193E-01  2.314E+00  3.704E-04  0.000E+00  3.405E-04
   1    4   52     1    52    2.8246E-01  3.4039E-04   2.8212E-01  0.000E+00  0.000E+00  0.000E+00  1.24969E+02  4.191E-01  2.314E+00  3.704E-04  0.000E+00  3.404E-04
   1    4   53     1    53    2.8212E-01  3.4025E-04   2.8178E-01  0.000E+00  0.000E+00  0.000E+00  1.24669E+02  4.189E-01  2.314E+00  3.703E-04  0.000E+00  3.402E-04
   1    4   54     1    54    2.8178E-01  3.4011E-04   2.8144E-01  0.000E+00  0.000E+00  0.000E+00  1.24369E+02  4.187E-01  2.313E+00  3.702E-04  0.000E+00  3.401E-04
   1    4   55     1    55    2.8144E-01  3.3998E-04   2.8110E-01  0.000E+00  0.000E+00  0.000E+00  1.24068E+02  4.185E-01  2.313E+00  3.702E-04  0.000E+00  3.400E-04
   1    4   56     1    56    2.8110E-01  3.3984E-04   2.8076E-01  0.000E+00  0.000E+00  0.000E+00  1.23768E+02  4.182E-01  2.313E+00  3.701E-04  0.000E+00  3.398E-04
   1    4   57     1    57    2.8076E-01  3.3970E-04   2.8042E-01  0.000E+00  0.000E+00  0.000E+00  1.23468E+02  4.180E-01  2.313E+00  3.700E-04  0.000E+00  3.397E-04
   1    4   58     1    58    2.8042E-01  3.3957E-04   2.8008E-01  0.000E+00  0.000E+00  0.000E+00  1.23168E+02  4.178E-01  2.312E+00  3.700E-04  0.000E+00  3.396E-04
   1    4   59     1    59    2.8008E-01  3.3943E-04   2.7974E-01  0.000E+00  0.000E+00  0.000E+00  1.22868E+02  4.176E-01  2.312E+00  3.699E-04  0.000E+00  3.394E-04
   1    4   60     1    60    2.7974E-01  3.3929E-04   2.7940E-01  0.000E+00  0.000E+00  0.000E+00  1.22567E+02  4.174E-01  2.312E+00  3.698E-04  0.000E+00  3.393E-04
   1    4   61     1    61    2.7940E-01  3.3916E-04   2.7906E-01  0.000E+00  0.000E+00  0.000E+00  1.22267E+02  4.172E-01  2.312E+00  3.698E-04  0.000E+00  3.392E-04
   1    4   62     1    62    2.7906E-01  3.3902E-04   2.7872E-01  0.000E+00  0.000E+00  0.000E+00  1.21967E+02  4.170E-01  2.311E+00  3.697E-04  0.000E+00  3.390E-04
   1    4   63     1    63    2.7872E-01  3.3889E-04   2.7838E-01  0.000E+00  0.000E+00  0.000E+00  1.21667E+02  4.168E-01  2.311E+00  3.696E-04  0.000E+00  3.389E-04
   1    4   64     1    64    2.7838E-01  3.3875E-04   2.7804E-01  0.000E+00  0.000E+00  0.000E+00  1.21367E+02  4.166E-01  2.311E+00  3.696E-04  0.000E+00  3.387E-04
   1    4   65     1    65    2.7804E-01  3.3861E-04   2.7771E-01  0.000E+00  0.000E+00  0.000E+00  1.21066E+02  4.164E-01  2.311E+00  3.695E-04  0.000E+00  3.386E-04
   1    4   66     1    66    2.7771E-01  3.3848E-04   2.7737E-01  0.000E+00  0.000E+00  0.000E+00  1.20766E+02  4.162E-01  2.310E+00  3.694E-04  0.000E+00  3.385E-04
   1    4   67     1    67    2.7737E-01  3.3834E-04   2.7703E-01  0.000E+00  0.000E+00  0.000E+00  1.20466E+02  4.160E-01  2.310E+00  3.694E-04  0.000E+00  3.383E-04
   1    4   68     1    68    2.7703E-01  3.3820E-04   2.7669E-01  0.000E+00  0.000E+00  0.000E+00  1.20166E+02  4.158E-01  2.310E+00  3.693E-04  0.000E+00  3.382E-04
   1    4   69     1    69    2.7669E-01  3.3807E-04   2.7635E-01  0.000E+00  0.000E+00  0.000E+00  1.19866E+02  4.156E-01  2.310E+00  3.692E-04  0.000E+00  3.381E-04
   1    4   70     1    70    2.7635E-01  3.3793E-04   2.7601E-01  0.000E+00  0.000E+00  0.000E+00  1.19565E+02  4.154E-01  2.309E+00  3.692E-04  0.000E+00  3.379E-04
   1    4   71     1    71    2.7601E-01  3.3779E-04   2.7568E-01  0.000E+00  0.000E+00  0.000E+00  1.19265E+02  4.152E-01  2.309E+00  3.691E-04  0.000E+00  3.378E-04
   1    4   72     1    72    2.7568E-01  3.3766E-04   2.7534E-01  0.000E+00  0.000E+00  0.000E+00  1.18965E+02  4.150E-01  2.309E+00  3.690E-04  0.000E+00  3.377E-04
   1    4   73     1    73    2.7534E-01  3.3752E-04   2.7500E-01  0.000E+00  0.000E+00  0.000E+00  1.18665E+02  4.148E-01  2.309E+00  3.690E-04  0.000E+00  3.375E-04
   1    4   74     1    74    2.7500E-01  3.3739E-04   2.7466E-01  0.000E+00  0.000E+00  0.000E+00  1.18365E+02  4.146E-01  2.309E+00  3.689E-04  0.000E+00  3.374E-04
   1    4   75     1    75    2.7466E-01  3.3725E-04   2.7433E-01  0.000E+00  0.000E+00  0.000E+00  1.18064E+02  4.144E-01  2.308E+00  3.688E-04  0.000E+00  3.373E-04
   1    4   76     1    76    2.7433E-01  3.3711E-04   2.7399E-01  0.000E+00  0.000E+00  0.000E+00  1.17764E+02  4.142E-01  2.308E+00  3.688E-04  0.000E+00  3.371E-04
   1    4   77     1    77    2.7399E-01  3.3698E-04   2.7365E-01  0.000E+00  0.000E+00  0.000E+00  1.17464E+02  4.140E-01  2.308E+00  3.687E-04  0.000E+00  3.370E-04
   1    4   78     1    78    2.7365E-01  3.3684E-04   2.7332E-01  0.000E+00  0.000E+00  0.000E+00  1.17164E+02  4.138E-01  2.308E+00  3.686E-04  0.000E+00  3.368E-04
   1    4   79     1    79    2.7332E-01  3.3671E-04   2.7298E-01  0.000E+00  0.000E+00  0.000E+00  1.16864E+02  4.136E-01  2.307E+00  3.686E-04  0.000E+00  3.367E-04
   1    4   80     1    80    2.7298E-01  3.3657E-04   2.7264E-01  0.000E+00  0.000E+00  0.000E+00  1.16563E+02  4.134E-01  2.307E+00  3.685E-04  0.000E+00  3.366E-04
   1    4   81     1    81    2.7264E-01  3.3643E-04   2.7231E-01  0.000E+00  0.000E+00  0.000E+00  1.16263E+02  4.132E-01  2.307E+00  3.684E-04  0.000E+00  3.364E-04
   1    4   82     1    82    2.7231E-01  3.3630E-04   2.7197E-01  0.000E+00  0.000E+00  0.000E+00  1.15963E+02  4.129E-01  2.307E+00  3.684E-04  0.000E+00  3.363E-04
   1    4   83     1    83    2.7197E-01  3.3616E-04   2.7163E-01  0.000E+00  0.000E+00  0.000E+00  1.15663E+02  4.127E-01  2.306E+00  3.683E-04  0.000E+00  3.362E-04
   1    4   84     1    84    2.7163E-01  3.3603E-04   2.7130E-01  0.000E+00  0.000E+00  0.000E+00  1.15363E+02  4.125E-01  2.306E+00  3.682E-04  0.000E+00  3.360E-04
   1    4   85     1    85    2.7130E-01  3.3589E-04   2.7096E-01  0.000E+00  0.000E+00  0.000E+00  1.15062E+02  4.123E-01  2.306E+00  3.682E-04  0.000E+00  3.359E-04
   1    4   86     1    86    2.7096E-01  3.3575E-04   2.7063E-01  0.000E+00  0.000E+00  0.000E+00  1.14762E+02  4.121E-01  2.306E+00  3.681E-04  0.000E+00  3.358E-04
   1    4   87     1    87    2.7063E-01  3.3562E-04   2.7029E-01  0.000E+00  0.000E+00  0.000E+00  1.14462E+02  4.119E-01  2.305E+00  3.680E-04  0.000E+00  3.356E-04
   1    4   88     1    88    2.7029E-01  3.3548E-04   2.6996E-01  0.000E+00  0.000E+00  0.000E+00  1.14162E+02  4.117E-01  2.305E+00  3.680E-04  0.000E+00  3.355E-04
   1    4   89     1    89    2.6996E-01  3.3535E-04   2.6962E-01  0.000E+00  0.000E+00  0.000E+00  1.13862E+02  4.115E-01  2.305E+00  3.679E-04  0.000E+00  3.353E-04
   1    4   90     1    90    2.6962E-01  3.3521E-04   2.6928E-01  0.000E+00  0.000E+00  0.000E+00  1.13561E+02  4.113E-01  2.305E+00  3.678E-04  0.000E+00  3.352E-04
   1    4   91     1    91    2.6928E-01  3.3507E-04   2.6895E-01  0.000E+00  0.000E+00  0.000E+00  1.13261E+02  4.111E-01  2.304E+00  3.678E-04  0.000E+00  3.351E-04
   1    4   92     1    92    2.6895E-01  3.3494E-04   2.6861E-01  0.000E+00  0.000E+00  0.000E+00  1.12961E+02  4.109E-01  2.304E+00  3.677E-04  0.000E+00  3.349E-04
   1    4   93     1    93    2.6861E-01  3.3480E-04   2.6828E-01  0.000E+00  0.000E+00  0.000E+00  1.12661E+02  4.107E-01  2.304E+00  3.676E-04  0.000E+00  3.348E-04
   1    4   94     1    94    2.6828E-01  3.3467E-04   2.6795E-01  0.000E+00  0.000E+00  0.000E+00  1.12360E+02  4.105E-01  2.304E+00  3.676E-04  0.000E+00  3.347E-04
   1    4   95     1    95    2.6795E-01  3.3453E-04   2.6761E-01  0.000E+00  0.000E+00  0.000E+00  1.12060E+02  4.103E-01  2.303E+00  3.675E-04  0.000E+00  3.345E-04
   1    4   96     1    96    2.6761E-01  3.3440E-04   2.6728E-01  0.000E+00  0.000E+00  0.000E+00  1.11760E+02  4.101E-01  2.303E+00  3.674E-04  0.000E+00  3.344E-04
   1    4   97     1    97    2.6728E-01  3.3426E-04   2.6694E-01  0.000E+00  0.000E+00  0.000E+00  1.11460E+02  4.099E-01  2.303E+00  3.674E-04  0.000E+00  3.343E-04
   1    4   98     1    98    2.6694E-01  3.3412E-04   2.6661E-01  0.000E+00  0.000E+00  0.000E+00  1.11160E+02  4.097E-01  2.303E+00  3.673E-04  0.000E+00  3.341E-04
   1    4   99     1    99    2.6661E-01  3.3399E-04   2.6627E-01  0.000E+00  0.000E+00  0.000E+00  1.10859E+02  4.095E-01  2.302E+00  3.672E-04  0.000E+00  3.340E-04
   1    4  100     1   100    2.6627E-01  3.3385E-04   2.6594E-01  0.000E+00  0.000E+00  0.000E+00  1.10559E+02  4.093E-01  2.302E+00  3.672E-04  0.000E+00  3.339E-04



1
  VOLUMETRIC BUDGET FOR UNSATURATED ZONE BENEATH STREAMS AT END OF TIME STEP    30 STRESS PERIOD   1
  ------------------------------------------------------------------------------------------------

    CUMULATIVE VOLUMES             L**3    RATES FOR THIS TIME STEP         L**3/T
    ------------------                     ------------------------


          STREAM LOSS =        88283.1328            STREAM LOSS =        3.4060E-02
    CHANGE IN STORAGE =        88283.1328      CHANGE IN STORAGE =        3.4060E-02
       RECHARGE TO GW =            0.0000         RECHARGE TO GW =            0.0000

             TOTAL IN =        88283.1328               TOTAL IN =        3.4060E-02

            TOTAL OUT =        88283.1328              TOTAL OUT =        3.4060E-02

             IN - OUT =            0.0000               IN - OUT =            0.0000

  PERCENT DISCREPANCY =            0.00      PERCENT DISCREPANCY =             0.00



1
              HEAD IN LAYER 1 AT END OF TIME STEP 30 IN STRESS PERIOD 1
  ---------------------------------------------------------------------------

          1      2      3      4      5      6      7      8      9     10
         11     12     13     14     15     16     17     18     19     20
         21     22     23     24     25     26     27     28     29     30
         31     32     33     34     35     36     37     38     39     40
         41     42     43     44     45     46     47     48     49     50
         51     52     53     54     55     56     57     58     59     60
         61     62     63     64     65     66     67     68     69     70
         71     72     73     74     75     76     77     78     79     80
         81     82     83     84     85     86     87     88     89     90
         91     92     93     94     95     96     97     98     99    100
 .........................................................................
   1  104.0 104.0 104.0 104.0 104.0 104.0 104.0 104.0 104.0 104.0
      104.0 104.0 104.0 104.0 104.0 104.0 104.0 104.0 104.0 104.0
      104.0 104.0 104.0 104.0 104.0 104.0 104.0 104.0 104.0 103.9
      103.9 103.9 103.8 103.7 103.6 103.4 103.2 102.9 102.6 102.1
      101.4 100.6 99.5 98.2 96.5 94.5 91.9 88.6 84.6 80.4
      81.5 82.6 83.0 82.9 83.4 86.0 89.2 92.1 94.5 96.6
      98.2 99.5 100.6 101.4 102.1 102.6 102.9 103.2 103.4 103.6
      103.7 103.8 103.8 103.8 103.8 103.8 103.7 103.7 103.6 103.5
      103.3 103.1 102.9 102.6 102.2 101.8 101.2 100.5 99.7 98.7
      97.5 96.1 94.4 92.5 90.3 87.8 85.0 81.9 78.6 75.0
   2  104.0 104.0 104.0 104.0 104.0 104.0 104.0 104.0 104.0 104.0
      104.0 104.0 104.0 104.0 104.0 104.0 104.0 104.0 104.0 104.0
      104.0 104.0 104.0 104.0 104.0 104.0 104.0 104.0 104.0 103.9
      103.9 103.9 103.8 103.7 103.6 103.4 103.2 102.9 102.6 102.1
      101.4 100.6 99.5 98.2 96.5 94.5 91.9 88.6 84.4 79.1
      81.4 82.6 82.9 82.7 82.7 85.8 89.1 92.0 94.5 96.6
      98.2 99.5 100.6 101.4 102.1 102.6 102.9 103.2 103.4 103.6
      103.7 103.8 103.8 103.8 103.8 103.8 103.7 103.7 103.6 103.5
      103.3 103.1 102.9 102.6 102.2 101.8 101.2 100.5 99.7 98.7
      97.5 96.1 94.4 92.5 90.3 87.8 85.0 81.9 78.6 75.0
   3  104.0 104.0 104.0 104.0 104.0 104.0 104.0 104.0 104.0 104.0
      104.0 104.0 104.0 104.0 104.0 104.0 104.0 104.0 104.0 104.0
      104.0 104.0 104.0 104.0 104.0 104.0 104.0 104.0 104.0 103.9
      103.9 103.9 103.8 103.7 103.6 103.4 103.2 102.9 102.6 102.1
      101.4 100.6 99.5 98.2 96.5 94.5 91.9 88.7 84.3 76.0
      81.3 82.6 82.8 82.2 81.4 85.3 88.9 92.0 94.5 96.6
      98.2 99.5 100.6 101.4 102.1 102.6 102.9 103.2 103.4 103.6
      103.7 103.8 103.8 103.8 103.8 103.8 103.7 103.7 103.6 103.5
      103.3 103.1 102.9 102.6 102.2 101.8 101.2 100.5 99.7 98.7
      97.5 96.1 94.4 92.5 90.3 87.8 85.0 81.9 78.6 75.0
   4  104.0 104.0 104.0 104.0 104.0 104.0 104.0 104.0 104.0 104.0
      104.0 104.0 104.0 104.0 104.0 104.0 104.0 104.0 104.0 104.0
      104.0 104.0 104.0 104.0 104.0 104.0 104.0 104.0 104.0 103.9
      103.9 103.9 103.8 103.7 103.6 103.4 103.2 102.9 102.6 102.1
      101.4 100.6 99.5 98.2 96.5 94.5 91.9 88.8 84.8 79.2
      81.7 82.7 82.7 81.7 79.2 84.8 88.8 91.9 94.5 96.5
      98.2 99.5 100.6 101.4 102.1 102.6 102.9 103.2 103.4 103.6
      103.7 103.8 103.8 103.8 103.8 103.8 103.7 103.7 103.6 103.5
      103.3 103.1 102.9 102.6 102.2 101.8 101.2 100.5 99.7 98.7
      97.5 96.1 94.4 92.5 90.3 87.8 85.0 81.9 78.6 75.0
   5  104.0 104.0 104.0 104.0 104.0 104.0 104.0 104.0 104.0 104.0
      104.0 104.0 104.0 104.0 104.0 104.0 104.0 104.0 104.0 104.0
      104.0 104.0 104.0 104.0 104.0 104.0 104.0 104.0 104.0 103.9
      103.9 103.9 103.8 103.7 103.6 103.4 103.2 102.9 102.6 102.1
      101.4 100.6 99.5 98.2 96.6 94.5 92.0 88.9 85.3 81.4
      82.2 82.8 82.6 81.3 76.0 84.3 88.7 91.9 94.5 96.5
      98.2 99.5 100.6 101.4 102.1 102.6 102.9 103.2 103.4 103.6
      103.7 103.8 103.8 103.8 103.8 103.8 103.7 103.7 103.6 103.5
      103.3 103.1 102.9 102.6 102.2 101.8 101.2 100.5 99.7 98.7
      97.5 96.1 94.4 92.5 90.3 87.8 85.0 81.9 78.6 75.0
   6  104.0 104.0 104.0 104.0 104.0 104.0 104.0 104.0 104.0 104.0
      104.0 104.0 104.0 104.0 104.0 104.0 104.0 104.0 104.0 104.0
      104.0 104.0 104.0 104.0 104.0 104.0 104.0 104.0 104.0 103.9
      103.9 103.9 103.8 103.7 103.6 103.4 103.2 102.9 102.6 102.1
      101.4 100.6 99.5 98.2 96.6 94.5 92.0 89.1 85.8 82.7
      82.7 82.9 82.6 81.4 79.1 84.4 88.6 91.9 94.5 96.5
      98.2 99.5 100.6 101.4 102.1 102.6 102.9 103.2 103.4 103.6
      103.7 103.8 103.8 103.8 103.8 103.8 103.7 103.7 103.6 103.5
      103.3 103.1 102.9 102.6 102.2 101.8 101.2 100.5 99.7 98.7
      97.5 96.1 94.4 92.5 90.3 87.8 85.0 81.9 78.6 75.0
   7  104.0 104.0 104.0 104.0 104.0 104.0 104.0 104.0 104.0 104.0
      104.0 104.0 104.0 104.0 104.0 104.0 104.0 104.0 104.0 104.0
      104.0 104.0 104.0 104.0 104.0 104.0 104.0 104.0 104.0 103.9
      103.9 103.9 103.8 103.7 103.6 103.4 103.2 102.9 102.6 102.1
      101.4 100.6 99.5 98.2 96.6 94.5 92.1 89.2 86.0 83.4
      82.9 83.0 82.6 81.5 80.4 84.6 88.6 91.9 94.5 96.5
      98.2 99.5 100.6 101.4 102.1 102.6 102.9 103.2 103.4 103.6
      103.7 103.8 103.8 103.8 103.8 103.8 103.7 103.7 103.6 103.5
      103.3 103.1 102.9 102.6 102.2 101.8 101.2 100.5 99.7 98.7
      97.5 96.1 94.4 92.5 90.3 87.8 85.0 81.9 78.6 75.0

 HEAD WILL BE SAVED ON UNIT   51 AT END OF TIME STEP   30, STRESS PERIOD    1
1
  VOLUMETRIC BUDGET FOR ENTIRE MODEL AT END OF TIME STEP   30, STRESS PERIOD   1
  ------------------------------------------------------------------------------

     CUMULATIVE VOLUMES      L**3       RATES FOR THIS TIME STEP      L**3/T
     ------------------                 ------------------------

           IN:                                      IN:
           ---                                      ---
             STORAGE     =    10978528.0000               STORAGE     =           3.5138
       CONSTANT HEAD     =           0.0000         CONSTANT HEAD     =           0.0000
               WELLS     =           0.0000                 WELLS     =           0.0000
     HEAD DEP BOUNDS     =           0.0000       HEAD DEP BOUNDS     =           0.0000
      STREAM LEAKAGE     =           0.0000        STREAM LEAKAGE     =           0.0000

                TOTAL IN =    10978528.0000                  TOTAL IN =           3.5138

          OUT:                                     OUT:
          ----                                     ----
             STORAGE     =       9.6035E-08               STORAGE     =           0.0000
       CONSTANT HEAD     =           0.0000         CONSTANT HEAD     =           0.0000
               WELLS     =     7361280.5000                 WELLS     =           2.8400
     HEAD DEP BOUNDS     =     3617246.7500       HEAD DEP BOUNDS     =           0.6738
      STREAM LEAKAGE     =           0.0000        STREAM LEAKAGE     =           0.0000

               TOTAL OUT =    10978527.0000                 TOTAL OUT =           3.5138

                IN - OUT =           1.0000                  IN - OUT =           0.0000

     PERCENT DISCREPANCY =           0.00         PERCENT DISCREPANCY =           0.00






         TIME SUMMARY AT END OF TIME STEP   30 IN STRESS PERIOD    1
                    SECONDS     MINUTES      HOURS       DAYS        YEARS
                    -----------------------------------------------------------
   TIME STEP LENGTH 2.49961E+05  4166.0      69.434      2.8931     7.92080E-03
 STRESS PERIOD TIME 2.59200E+06  43200.      720.00      30.000     8.21355E-02
         TOTAL TIME 2.59200E+06  43200.      720.00      30.000     8.21355E-02
1
1
                            STRESS PERIOD NO.    2, LENGTH =   2592000.    
                            -----------------------------------------------

                              NUMBER OF TIME STEPS =    30

                               MULTIPLIER FOR DELT =     1.100

                            INITIAL TIME STEP SIZE =   15757.40    

 REUSING NON-PARAMETER WELLS FROM LAST STRESS PERIOD

      1 WELL 

 REUSING NON-PARAMETER GHB CELLS FROM LAST STRESS PERIOD

      7 GHB CELLS



 CLASSIFICATION & COUNT OF STREAM SEGMENTS BASED ON SOURCE OF INFLOW:

                HEADWATER     DIVERSION     RECEIVES TRIBUTARY FLOW
                ---------     ---------     -----------------------
                     1              0               0



                    INPUT DATA FOR EACH STREAM SEGMENT
 ---------------------------------------------------------------------------------------------

 SEGMENT    SEG.     INFLOW   OVERLAND   STREAM    STREAM   ICALC  OUTFLOW  DIVERSION PRIORITY
    NO.    LENGTH     RATE     RUNOFF      ET       PPT.    METH.  TO SEG.  FROM SEG.    NO.

      1  2.000E+04 2.533E+00 0.000E+00 0.000E+00 0.000E+00    2        0        0        0


         STREAMBED PROPERTIES AND STREAM DIMENSIONS

 SEGMENT     BED HYD. COND.      BED THICKNESS     ELEV.-TOP OF BED     WIDTH OF STREAM     DEPTH OF STREAM    STREAM ROUGHNESS
    No.     UPPER     LOWER     UPPER     LOWER     UPPER     LOWER     UPPER     LOWER     UPPER     LOWER   CHANNEL      BANK

     1  3.500E-07 3.500E-07                                                                                 3.000E-02 4.000E-02

  EIGHT POINT CROSS-SECTION DATA FOR SEGMENTS WITH ICALC = 2
    X VALUES X VALUES START FROM LEFT SIDE LOOKING DOWNSTREAM

     SEGMENT NO.        X1        X2        X3        X4        X5        X6        X7        X8
            1      0.000E+00 2.000E+00 4.000E+00 6.000E+00 8.000E+00 1.000E+01 1.200E+01 1.400E+01

    Z VALUES ARE RELATIVE TO STREAMBED ELEVATION

     SEGMENT NO.          Z1        Z2        Z3        Z4        Z5        Z6        Z7        Z8
            1      6.000E+00 4.500E+00 3.500E+00 0.000E+00 3.000E-01 3.500E+00 4.500E+00 6.000E+00



 
 SOLVING FOR HEAD 
                                                   Max.-Head-Change                         Max.-Flux-Residual
  Residual-Control   Outer-Iter.   Inner-Iter.     Column Row Layer    Maximum-Head-Change  Column Row Layer    Maximum-Flux-Residual          L2-NORM 
          0                 1           2            55    5     1      -0.1842336981E+00      55    5    1        -0.5436630768E-01      0.2312617087E+00
          0                 2           2            55    5     1       0.1820842946E-01      55    5    1         0.5404460765E-02      0.2311663264E-01
          0                 3           2            55    5     1      -0.1624342061E-02      55    5    1        -0.4867145366E-03      0.2080589572E-02
          0                 4           2            55    5     1       0.1289254351E-03      55    5    1         0.3898335226E-04      0.1666545313E-03
          0                 5           1            55    5     1      -0.8981191037E-05      55    5    1        -0.2740507519E-05      0.1171565646E-04
          0                 6           1            55    5     1       0.5392947920E-06      55    5    1         0.1660638542E-06      0.7099200136E-06

    ------------------------------------------------
       NWT REQUIRED            6 OUTER ITERATIONS 
       AND A TOTAL OF         10 INNER ITERATIONS.
    ------------------------------------------------

 NO OUTPUT CONTROL FOR STRESS PERIOD    2   TIME STEP    1
 
 SOLVING FOR HEAD 
                                                   Max.-Head-Change                         Max.-Flux-Residual
  Residual-Control   Outer-Iter.   Inner-Iter.     Column Row Layer    Maximum-Head-Change  Column Row Layer    Maximum-Flux-Residual          L2-NORM 
          0                 1           2            55    5     1      -0.1685384787E+00      55    5    1        -0.3827488902E-01      0.2275144573E+00
          0                 2           2            55    5     1       0.1667128253E-01      55    5    1         0.3810774767E-02      0.2274886300E-01
          0                 3           2            55    5     1      -0.1487076907E-02      55    5    1        -0.3431322639E-03      0.2047422959E-02
          0                 4           2            55    5     1       0.1180316989E-03      55    5    1         0.2748360751E-04      0.1639984213E-03
          0                 5           1            55    5     1      -0.8222304940E-05      55    5    1        -0.1932079082E-05      0.1152893111E-04
          0                 6           1            55    5     1       0.4937252317E-06      55    5    1         0.1170763149E-06      0.6986041115E-06

    ------------------------------------------------
       NWT REQUIRED            6 OUTER ITERATIONS 
       AND A TOTAL OF         10 INNER ITERATIONS.
    ------------------------------------------------

 NO OUTPUT CONTROL FOR STRESS PERIOD    2   TIME STEP    2
 
 SOLVING FOR HEAD 
                                                   Max.-Head-Change                         Max.-Flux-Residual
  Residual-Control   Outer-Iter.   Inner-Iter.     Column Row Layer    Maximum-Head-Change  Column Row Layer    Maximum-Flux-Residual          L2-NORM 
          0                 1           2            55    5     1      -0.1684394233E+00      55    5    1        -0.3182254265E-01      0.2264500482E+00
          0                 2           2            55    5     1       0.1666885216E-01      55    5    1         0.3171357432E-02      0.2264373587E-01
          0                 3           2            55    5     1      -0.1486787423E-02      55    5    1        -0.2855280910E-03      0.2037948811E-02
          0                 4           2            55    5     1       0.1180093070E-03      55    5    1         0.2286996275E-04      0.1632396431E-03
          0                 5           1            55    5     1      -0.8220740801E-05      55    5    1        -0.1607741497E-05      0.1147558912E-04
          0                 6           1            55    5     1       0.4936307649E-06      55    5    1         0.9742275964E-07      0.6953699519E-06

    ------------------------------------------------
       NWT REQUIRED            6 OUTER ITERATIONS 
       AND A TOTAL OF         10 INNER ITERATIONS.
    ------------------------------------------------

 NO OUTPUT CONTROL FOR STRESS PERIOD    2   TIME STEP    3
 
 SOLVING FOR HEAD 
                                                   Max.-Head-Change                         Max.-Flux-Residual
  Residual-Control   Outer-Iter.   Inner-Iter.     Column Row Layer    Maximum-Head-Change  Column Row Layer    Maximum-Flux-Residual          L2-NORM 
          0                 1           2            55    5     1      -0.1757354272E+00      55    5    1        -0.2890611945E-01      0.2258367574E+00
          0                 2           2            55    5     1       0.1739414400E-01      55    5    1         0.2881643736E-02      0.2258269144E-01
          0                 3           2            55    5     1      -0.1551447841E-02      55    5    1        -0.2594350379E-03      0.2032452062E-02
          0                 4           2            55    5     1       0.1231417949E-03      55    5    1         0.2078005845E-04      0.1627993753E-03
          0                 5           1            55    5     1      -0.8578276807E-05      55    5    1        -0.1460822308E-05      0.1144463858E-04
          0                 6           1            55    5     1       0.5150990060E-06      55    5    1         0.8852003752E-07      0.6934916689E-06

    ------------------------------------------------
       NWT REQUIRED            6 OUTER ITERATIONS 
       AND A TOTAL OF         10 INNER ITERATIONS.
    ------------------------------------------------

 NO OUTPUT CONTROL FOR STRESS PERIOD    2   TIME STEP    4
 
 SOLVING FOR HEAD 
                                                   Max.-Head-Change                         Max.-Flux-Residual
  Residual-Control   Outer-Iter.   Inner-Iter.     Column Row Layer    Maximum-Head-Change  Column Row Layer    Maximum-Flux-Residual          L2-NORM 
          0                 1           2            55    5     1      -0.1873357892E+00      55    5    1        -0.2743837417E-01      0.2253114881E+00
          0                 2           2            55    5     1       0.1854323992E-01      55    5    1         0.2735095754E-02      0.2253018443E-01
          0                 3           2            55    5     1      -0.1653930878E-02      55    5    1        -0.2462434065E-03      0.2027726242E-02
          0                 4           2            55    5     1       0.1312761696E-03      55    5    1         0.1972342682E-04      0.1624208385E-03
          0                 5           1            55    5     1      -0.9144930487E-05      55    5    1        -0.1386542015E-05      0.1141802779E-04
          0                 6           1            55    5     1       0.5491238531E-06      55    5    1         0.8401894291E-07      0.6918749837E-06

    ------------------------------------------------
       NWT REQUIRED            6 OUTER ITERATIONS 
       AND A TOTAL OF         10 INNER ITERATIONS.
    ------------------------------------------------

 NO OUTPUT CONTROL FOR STRESS PERIOD    2   TIME STEP    5
 
 SOLVING FOR HEAD 
                                                   Max.-Head-Change                         Max.-Flux-Residual
  Residual-Control   Outer-Iter.   Inner-Iter.     Column Row Layer    Maximum-Head-Change  Column Row Layer    Maximum-Flux-Residual          L2-NORM 
          0                 1           2            55    5     1      -0.2018179822E+00      55    5    1        -0.2657529688E-01      0.2247811304E+00
          0                 2           2            55    5     1       0.1997624180E-01      55    5    1         0.2648201158E-02      0.2247707551E-01
          0                 3           2            55    5     1      -0.1781749583E-02      55    5    1        -0.2384284357E-03      0.2022947149E-02
          0                 4           2            55    5     1       0.1414213863E-03      55    5    1         0.1909740320E-04      0.1620380274E-03
          0                 5           1            55    5     1      -0.9851663205E-05      55    5    1        -0.1342533430E-05      0.1139111657E-04
          0                 6           1            55    5     1       0.5915595640E-06      55    5    1         0.8135219076E-07      0.6902381383E-06

    ------------------------------------------------
       NWT REQUIRED            6 OUTER ITERATIONS 
       AND A TOTAL OF         10 INNER ITERATIONS.
    ------------------------------------------------

 NO OUTPUT CONTROL FOR STRESS PERIOD    2   TIME STEP    6
 
 SOLVING FOR HEAD 
                                                   Max.-Head-Change                         Max.-Flux-Residual
  Residual-Control   Outer-Iter.   Inner-Iter.     Column Row Layer    Maximum-Head-Change  Column Row Layer    Maximum-Flux-Residual          L2-NORM 
          0                 1           2            55    5     1      -0.2187416680E+00      55    5    1        -0.2603000934E-01      0.2242265985E+00
          0                 2           2            55    5     1       0.2164972751E-01      55    5    1         0.2592503821E-02      0.2242149297E-01
          0                 3           2            55    5     1      -0.1931029324E-02      55    5    1        -0.2334267973E-03      0.2017945970E-02
          0                 4           2            55    5     1       0.1532699204E-03      55    5    1         0.1869668310E-04      0.1616374229E-03
          0                 5           1            55    5     1      -0.1067705217E-04      55    5    1        -0.1314363772E-05      0.1136295453E-04
          0                 6           1            55    5     1       0.6411196871E-06      55    5    1         0.7964522375E-07      0.6885226957E-06

    ------------------------------------------------
       NWT REQUIRED            6 OUTER ITERATIONS 
       AND A TOTAL OF         10 INNER ITERATIONS.
    ------------------------------------------------

 NO OUTPUT CONTROL FOR STRESS PERIOD    2   TIME STEP    7
 
 SOLVING FOR HEAD 
                                                   Max.-Head-Change                         Max.-Flux-Residual
  Residual-Control   Outer-Iter.   Inner-Iter.     Column Row Layer    Maximum-Head-Change  Column Row Layer    Maximum-Flux-Residual          L2-NORM 
          0                 1           2            55    5     1      -0.2378933233E+00      55    5    1        -0.2564699211E-01      0.2236366592E+00
          0                 2           2            55    5     1       0.2354258426E-01      55    5    1         0.2552560177E-02      0.2236232597E-01
          0                 3           2            55    5     1      -0.2099886686E-02      55    5    1        -0.2298474878E-03      0.2012622608E-02
          0                 4           2            55    5     1       0.1666722833E-03      55    5    1         0.1840985567E-04      0.1612110082E-03
          0                 5           1            55    5     1      -0.1161068333E-04      55    5    1        -0.1294200866E-05      0.1133297807E-04
          0                 6           1            55    5     1       0.6971784861E-06      50    3    1         0.7842362848E-07      0.6866933520E-06

    ------------------------------------------------
       NWT REQUIRED            6 OUTER ITERATIONS 
       AND A TOTAL OF         10 INNER ITERATIONS.
    ------------------------------------------------

 NO OUTPUT CONTROL FOR STRESS PERIOD    2   TIME STEP    8
 
 SOLVING FOR HEAD 
                                                   Max.-Head-Change                         Max.-Flux-Residual
  Residual-Control   Outer-Iter.   Inner-Iter.     Column Row Layer    Maximum-Head-Change  Column Row Layer    Maximum-Flux-Residual          L2-NORM 
          0                 1           2            55    5     1      -0.2592680062E+00      55    5    1        -0.2536148759E-01      0.2230069162E+00
          0                 2           2            55    5     1       0.2565414385E-01      55    5    1         0.2521881865E-02      0.2229913410E-01
          0                 3           2            55    5     1      -0.2288263725E-02      55    5    1        -0.2271066345E-03      0.2006937431E-02
          0                 4           2            55    5     1       0.1816238625E-03      55    5    1         0.1819015205E-04      0.1607556085E-03
          0                 5           1            55    5     1      -0.1265223515E-04      55    5    1        -0.1278756919E-05      0.1130096401E-04
          0                 6           1            55    5     1       0.7597164999E-06      50    3    1         0.7748987230E-07      0.6847349979E-06

    ------------------------------------------------
       NWT REQUIRED            6 OUTER ITERATIONS 
       AND A TOTAL OF         10 INNER ITERATIONS.
    ------------------------------------------------

 NO OUTPUT CONTROL FOR STRESS PERIOD    2   TIME STEP    9
 
 SOLVING FOR HEAD 
                                                   Max.-Head-Change                         Max.-Flux-Residual
  Residual-Control   Outer-Iter.   Inner-Iter.     Column Row Layer    Maximum-Head-Change  Column Row Layer    Maximum-Flux-Residual          L2-NORM 
          0                 1           2            55    5     1      -0.2828961578E+00      55    5    1        -0.2512464785E-01      0.2223311759E+00
          0                 2           2            55    5     1       0.2798720477E-01      55    5    1         0.2495565699E-02      0.2223129632E-01
          0                 3           2            55    5     1      -0.2496412018E-02      55    5    1        -0.2247630767E-03      0.2000834555E-02
          0                 4           2            55    5     1       0.1981446100E-03      55    5    1         0.1800223419E-04      0.1602667477E-03
          0                 5           1            55    5     1      -0.1380309744E-04      55    5    1        -0.1265547722E-05      0.1126659769E-04
          0                 6           1            55    5     1       0.8288168147E-06      50    3    1         0.7669274815E-07      0.6826264179E-06

    ------------------------------------------------
       NWT REQUIRED            6 OUTER ITERATIONS 
       AND A TOTAL OF         10 INNER ITERATIONS.
    ------------------------------------------------

 NO OUTPUT CONTROL FOR STRESS PERIOD    2   TIME STEP   10
 
 SOLVING FOR HEAD 
                                                   Max.-Head-Change                         Max.-Flux-Residual
  Residual-Control   Outer-Iter.   Inner-Iter.     Column Row Layer    Maximum-Head-Change  Column Row Layer    Maximum-Flux-Residual          L2-NORM 
          0                 1           2            55    5     1      -0.3089123288E+00      55    5    1        -0.2492163013E-01      0.2216062945E+00
          0                 2           2            55    5     1       0.3055468853E-01      55    5    1         0.2472034249E-02      0.2215849068E-01
          0                 3           2            55    5     1      -0.2725487766E-02      55    5    1        -0.2226756733E-03      0.1994285073E-02
          0                 4           2            55    5     1       0.2163262663E-03      55    5    1         0.1783479004E-04      0.1597421095E-03
          0                 5           1            55    5     1      -0.1506966086E-04      55    5    1        -0.1253778102E-05      0.1122971625E-04
          0                 6           1            50    3     1       0.9048678273E-06      50    3    1         0.7598458929E-07      0.6803548986E-06

    ------------------------------------------------
       NWT REQUIRED            6 OUTER ITERATIONS 
       AND A TOTAL OF         10 INNER ITERATIONS.
    ------------------------------------------------

 NO OUTPUT CONTROL FOR STRESS PERIOD    2   TIME STEP   11
 
 SOLVING FOR HEAD 
                                                   Max.-Head-Change                         Max.-Flux-Residual
  Residual-Control   Outer-Iter.   Inner-Iter.     Column Row Layer    Maximum-Head-Change  Column Row Layer    Maximum-Flux-Residual          L2-NORM 
          0                 1           2            55    5     1      -0.3374663569E+00      55    5    1        -0.2473851725E-01      0.2208285744E+00
          0                 2           2            55    5     1       0.3337094484E-01      55    5    1         0.2449793029E-02      0.2208033976E-01
          0                 3           2            55    5     1      -0.2976775312E-02      55    5    1        -0.2207108166E-03      0.1987255079E-02
          0                 4           2            55    5     1       0.2362707363E-03      55    5    1         0.1767711039E-04      0.1591789773E-03
          0                 5           1            55    5     1      -0.1645902421E-04      55    5    1        -0.1242695221E-05      0.1119012872E-04
          0                 6           1            50    3     1       0.9882984246E-06      50    3    1         0.7532049118E-07      0.6779050640E-06

    ------------------------------------------------
       NWT REQUIRED            6 OUTER ITERATIONS 
       AND A TOTAL OF         10 INNER ITERATIONS.
    ------------------------------------------------

 NO OUTPUT CONTROL FOR STRESS PERIOD    2   TIME STEP   12
 
 SOLVING FOR HEAD 
                                                   Max.-Head-Change                         Max.-Flux-Residual
  Residual-Control   Outer-Iter.   Inner-Iter.     Column Row Layer    Maximum-Head-Change  Column Row Layer    Maximum-Flux-Residual          L2-NORM 
          0                 1           2            55    5     1      -0.3687511288E+00      55    5    1        -0.2457072984E-01      0.2199954436E+00
          0                 2           2            55    5     1       0.3645441139E-01      55    5    1         0.2428235860E-02      0.2199657557E-01
          0                 3           2            55    5     1      -0.3251925194E-02      55    5    1        -0.2188152479E-03      0.1979720540E-02
          0                 4           2            55    5     1       0.2581089773E-03      55    5    1         0.1752491876E-04      0.1585754251E-03
          0                 5           1            55    5     1      -0.1798031066E-04      55    5    1        -0.1231998553E-05      0.1114769968E-04
          0                 6           1            50    3     1       0.1079654826E-05      50    3    1         0.7468327290E-07      0.6752638283E-06
          0                 7           1            50    3     1      -0.5455483746E-07      50    3    1        -0.3809992322E-08      0.3441725871E-07

    ------------------------------------------------
       NWT REQUIRED            7 OUTER ITERATIONS 
       AND A TOTAL OF         11 INNER ITERATIONS.
    ------------------------------------------------

 NO OUTPUT CONTROL FOR STRESS PERIOD    2   TIME STEP   13
 
 SOLVING FOR HEAD 
                                                   Max.-Head-Change                         Max.-Flux-Residual
  Residual-Control   Outer-Iter.   Inner-Iter.     Column Row Layer    Maximum-Head-Change  Column Row Layer    Maximum-Flux-Residual          L2-NORM 
          0                 1           2            55    5     1      -0.4029451742E+00      55    5    1        -0.2440643284E-01      0.2191028618E+00
          0                 2           2            55    5     1       0.3982202282E-01      55    5    1         0.2406036356E-02      0.2190678527E-01
          0                 3           2            55    5     1      -0.3552454532E-02      55    5    1        -0.2168707960E-03      0.1971644361E-02
          0                 4           2            55    5     1       0.2819613516E-03      55    5    1         0.1736873995E-04      0.1579284801E-03
          0                 5           1            55    5     1      -0.1964190589E-04      55    5    1        -0.1221022030E-05      0.1110222008E-04
          0                 6           1            50    3     1       0.1179443360E-05      50    3    1         0.7403390612E-07      0.6724121709E-06
          0                 7           1            50    3     1      -0.5959821063E-07      50    3    1        -0.3777836710E-08      0.3426616259E-07

    ------------------------------------------------
       NWT REQUIRED            7 OUTER ITERATIONS 
       AND A TOTAL OF         11 INNER ITERATIONS.
    ------------------------------------------------

 NO OUTPUT CONTROL FOR STRESS PERIOD    2   TIME STEP   14
 
 SOLVING FOR HEAD 
                                                   Max.-Head-Change                         Max.-Flux-Residual
  Residual-Control   Outer-Iter.   Inner-Iter.     Column Row Layer    Maximum-Head-Change  Column Row Layer    Maximum-Flux-Residual          L2-NORM 
          0                 1           2            55    5     1      -0.4403070666E+00      55    5    1        -0.2425160018E-01      0.2181497604E+00
          0                 2           2            55    5     1       0.4349828103E-01      55    5    1         0.2383544738E-02      0.2181084491E-01
          0                 3           2            55    5     1      -0.3880558613E-02      55    5    1        -0.2149111125E-03      0.1963015508E-02
          0                 4           2            55    5     1       0.3080020214E-03      55    5    1         0.1721125220E-04      0.1572372563E-03
          0                 5           1            55    5     1      -0.2145594497E-04      55    5    1        -0.1209954052E-05      0.1105362756E-04
          0                 6           1            50    3     1       0.1288396864E-05      50    3    1         0.7338555896E-07      0.6693383021E-06
          0                 7           1            50    3     1      -0.6510549995E-07      50    3    1        -0.3746148280E-08      0.3410178815E-07

    ------------------------------------------------
       NWT REQUIRED            7 OUTER ITERATIONS 
       AND A TOTAL OF         11 INNER ITERATIONS.
    ------------------------------------------------

 NO OUTPUT CONTROL FOR STRESS PERIOD    2   TIME STEP   15
 
 SOLVING FOR HEAD 
                                                   Max.-Head-Change                         Max.-Flux-Residual
  Residual-Control   Outer-Iter.   Inner-Iter.     Column Row Layer    Maximum-Head-Change  Column Row Layer    Maximum-Flux-Residual          L2-NORM 
          0                 1           2            55    5     1      -0.4810092706E+00      55    5    1        -0.2408621924E-01      0.2171308119E+00
          0                 2           2            55    5     1       0.4749922219E-01      55    5    1         0.2358595991E-02      0.2170821622E-01
          0                 3           2            55    5     1      -0.4237676803E-02      55    5    1        -0.2127426155E-03      0.1953785529E-02
          0                 4           2            55    5     1       0.3363451537E-03      55    5    1         0.1703693925E-04      0.1564978701E-03
          0                 5           1            55    5     1      -0.2343038607E-04      55    5    1        -0.1197703897E-05      0.1100164890E-04
          0                 6           1            50    3     1       0.1407001324E-05      50    3    1         0.7267478352E-07      0.6660156162E-06
          0                 7           1            50    3     1      -0.7110170317E-07      50    3    1        -0.3711820185E-08      0.3392220092E-07

    ------------------------------------------------
       NWT REQUIRED            7 OUTER ITERATIONS 
       AND A TOTAL OF         11 INNER ITERATIONS.
    ------------------------------------------------

 NO OUTPUT CONTROL FOR STRESS PERIOD    2   TIME STEP   16
 
 SOLVING FOR HEAD 
                                                   Max.-Head-Change                         Max.-Flux-Residual
  Residual-Control   Outer-Iter.   Inner-Iter.     Column Row Layer    Maximum-Head-Change  Column Row Layer    Maximum-Flux-Residual          L2-NORM 
          0                 1           2            55    5     1      -0.5253964142E+00      55    5    1        -0.2392955584E-01      0.2160470476E+00
          0                 2           2            55    5     1       0.5185713864E-01      55    5    1         0.2332704773E-02      0.2159897415E-01
          0                 3           2            55    5     1      -0.4626705473E-02      55    5    1        -0.2105051154E-03      0.1943961330E-02
          0                 4           2            55    5     1       0.3672204994E-03      55    5    1         0.1685697175E-04      0.1557108689E-03
          0                 5           1            55    5     1      -0.2558124333E-04      55    5    1        -0.1185057039E-05      0.1094632229E-04
          0                 6           1            50    3     1       0.1536229546E-05      50    3    1         0.7195221663E-07      0.6624340862E-06
          0                 7           1            50    3     1      -0.7763663818E-07      50    3    1        -0.3677628868E-08      0.3372624761E-07

    ------------------------------------------------
       NWT REQUIRED            7 OUTER ITERATIONS 
       AND A TOTAL OF         11 INNER ITERATIONS.
    ------------------------------------------------

 NO OUTPUT CONTROL FOR STRESS PERIOD    2   TIME STEP   17
 
 SOLVING FOR HEAD 
                                                   Max.-Head-Change                         Max.-Flux-Residual
  Residual-Control   Outer-Iter.   Inner-Iter.     Column Row Layer    Maximum-Head-Change  Column Row Layer    Maximum-Flux-Residual          L2-NORM 
          0                 1           2            55    5     1      -0.5736378032E+00      55    5    1        -0.2375313747E-01      0.2148922565E+00
          0                 2           2            55    5     1       0.5658728143E-01      55    5    1         0.2302822736E-02      0.2148234639E-01
          0                 3           2            55    5     1      -0.5049017473E-02      55    5    1        -0.2079256467E-03      0.1933473245E-02
          0                 4           2            55    5     1       0.4007369030E-03      55    5    1         0.1664947365E-04      0.1548706657E-03
          0                 5           1            55    5     1      -0.2791611527E-04      55    5    1        -0.1170475691E-05      0.1088725437E-04
          0                 6           1            50    3     1       0.1676558973E-05      50    3    1         0.7112943656E-07      0.6585547276E-06
          0                 7           1            50    3     1      -0.8473580594E-07      50    3    1        -0.3639346602E-08      0.3351120177E-07

    ------------------------------------------------
       NWT REQUIRED            7 OUTER ITERATIONS 
       AND A TOTAL OF         11 INNER ITERATIONS.
    ------------------------------------------------

 NO OUTPUT CONTROL FOR STRESS PERIOD    2   TIME STEP   18
 
 SOLVING FOR HEAD 
                                                   Max.-Head-Change                         Max.-Flux-Residual
  Residual-Control   Outer-Iter.   Inner-Iter.     Column Row Layer    Maximum-Head-Change  Column Row Layer    Maximum-Flux-Residual          L2-NORM 
          0                 1           3            55    5     1      -0.6261664944E+00      55    5    1        -0.2358609950E-01      0.2136380830E+00
          0                 2           2            55    5     1       0.6172961989E-01      55    5    1         0.2271226042E-02      0.2135337005E-01
          0                 3           2            55    5     1      -0.5508202810E-02      55    5    1        -0.2052143053E-03      0.1921998209E-02
          0                 4           2            55    5     1       0.4371790657E-03      55    5    1         0.1643123117E-04      0.1539890130E-03
          0                 5           1            55    5     1      -0.3045475167E-04      55    5    1        -0.1155140151E-05      0.1082986792E-04
          0                 6           1            50    3     1       0.1829020704E-05      50    3    1         0.7026235771E-07      0.6550472209E-06
          0                 7           1            50    3     1      -0.9243987773E-07      50    3    1        -0.3598582765E-08      0.3333301730E-07

    ------------------------------------------------
       NWT REQUIRED            7 OUTER ITERATIONS 
       AND A TOTAL OF         12 INNER ITERATIONS.
    ------------------------------------------------

 NO OUTPUT CONTROL FOR STRESS PERIOD    2   TIME STEP   19
 
 SOLVING FOR HEAD 
                                                   Max.-Head-Change                         Max.-Flux-Residual
  Residual-Control   Outer-Iter.   Inner-Iter.     Column Row Layer    Maximum-Head-Change  Column Row Layer    Maximum-Flux-Residual          L2-NORM 
          0                 1           3            55    5     1      -0.6832132324E+00      55    5    1        -0.2340320174E-01      0.2122875741E+00
          0                 2           2            55    5     1       0.6730439435E-01      55    6    1         0.2245416172E-02      0.2121540776E-01
          0                 3           2            55    5     1      -0.6006087220E-02      55    5    1        -0.2021134810E-03      0.1909601413E-02
          0                 4           2            55    5     1       0.4766916657E-03      55    6    1         0.1618342077E-04      0.1530088472E-03
          0                 5           1            55    5     1      -0.3320735131E-04      55    6    1        -0.1137666089E-05      0.1076275508E-04
          0                 6           1            50    3     1       0.1994430559E-05      50    3    1         0.6929201390E-07      0.6506060196E-06
          0                 7           1            50    3     1      -0.1008037924E-06      52    3    1        -0.3568963791E-08      0.3308640657E-07

    ------------------------------------------------
       NWT REQUIRED            7 OUTER ITERATIONS 
       AND A TOTAL OF         12 INNER ITERATIONS.
    ------------------------------------------------

 NO OUTPUT CONTROL FOR STRESS PERIOD    2   TIME STEP   20
 
 SOLVING FOR HEAD 
                                                   Max.-Head-Change                         Max.-Flux-Residual
  Residual-Control   Outer-Iter.   Inner-Iter.     Column Row Layer    Maximum-Head-Change  Column Row Layer    Maximum-Flux-Residual          L2-NORM 
          0                 1           3            55    5     1      -0.7451779198E+00      55    5    1        -0.2321421619E-01      0.2108698649E+00
          0                 2           2            55    5     1       0.7334723719E-01      55    6    1         0.2227443905E-02      0.2106925177E-01
          0                 3           2            55    5     1      -0.6545880396E-02      55    6    1        -0.2004081185E-03      0.1896394985E-02
          0                 4           2            55    5     1       0.5195290748E-03      55    6    1         0.1605294610E-04      0.1519617404E-03
          0                 5           1            55    5     1      -0.3619165357E-04      55    6    1        -0.1128485437E-05      0.1069108028E-04
          0                 6           1            50    3     1       0.2173873421E-05      54    5    1         0.6871294289E-07      0.6457882336E-06
          0                 7           1            50    3     1      -0.1098835247E-06      52    3    1        -0.3559950557E-08      0.3281718691E-07

    ------------------------------------------------
       NWT REQUIRED            7 OUTER ITERATIONS 
       AND A TOTAL OF         12 INNER ITERATIONS.
    ------------------------------------------------

 NO OUTPUT CONTROL FOR STRESS PERIOD    2   TIME STEP   21
 
 SOLVING FOR HEAD 
                                                   Max.-Head-Change                         Max.-Flux-Residual
  Residual-Control   Outer-Iter.   Inner-Iter.     Column Row Layer    Maximum-Head-Change  Column Row Layer    Maximum-Flux-Residual          L2-NORM 
          0                 1           3            55    5     1      -0.8124692613E+00      55    5    1        -0.2302049779E-01      0.2093855999E+00
          0                 2           2            55    5     1       0.7989374740E-01      55    6    1         0.2209007819E-02      0.2091613502E-01
          0                 3           2            55    5     1      -0.7130794296E-02      55    6    1        -0.1987349172E-03      0.1882604683E-02
          0                 4           2            55    5     1       0.5659456717E-03      55    6    1         0.1591884975E-04      0.1508755819E-03
          0                 5           1            55    5     1      -0.3942527292E-04      55    6    1        -0.1119044811E-05      0.1061754550E-04
          0                 6           1            50    3     1       0.2368229109E-05      52    3    1         0.6827538712E-07      0.6407018699E-06
          0                 7           1            50    3     1      -0.1197072988E-06      52    3    1        -0.3554239569E-08      0.3252577630E-07

    ------------------------------------------------
       NWT REQUIRED            7 OUTER ITERATIONS 
       AND A TOTAL OF         12 INNER ITERATIONS.
    ------------------------------------------------

 NO OUTPUT CONTROL FOR STRESS PERIOD    2   TIME STEP   22
 
 SOLVING FOR HEAD 
                                                   Max.-Head-Change                         Max.-Flux-Residual
  Residual-Control   Outer-Iter.   Inner-Iter.     Column Row Layer    Maximum-Head-Change  Column Row Layer    Maximum-Flux-Residual          L2-NORM 
          0                 1           3            55    5     1      -0.8855271932E+00      55    5    1        -0.2282176575E-01      0.2078295447E+00
          0                 2           2            55    5     1       0.8698135966E-01      55    6    1         0.2190221479E-02      0.2075459760E-01
          0                 3           2            55    5     1      -0.7764211894E-02      55    6    1        -0.1970264802E-03      0.1868049542E-02
          0                 4           2            55    5     1       0.6162092088E-03      55    6    1         0.1578183241E-04      0.1497284147E-03
          0                 5           1            55    5     1      -0.4292704519E-04      50    2    1        -0.1109413990E-05      0.1053982737E-04
          0                 6           1            50    3     1       0.2578919986E-05      52    3    1         0.6790382123E-07      0.6352004382E-06
          0                 7           1            50    3     1      -0.1303694522E-06      52    3    1        -0.3556577255E-08      0.3220890750E-07

    ------------------------------------------------
       NWT REQUIRED            7 OUTER ITERATIONS 
       AND A TOTAL OF         12 INNER ITERATIONS.
    ------------------------------------------------

 NO OUTPUT CONTROL FOR STRESS PERIOD    2   TIME STEP   23
 
 SOLVING FOR HEAD 
                                                   Max.-Head-Change                         Max.-Flux-Residual
  Residual-Control   Outer-Iter.   Inner-Iter.     Column Row Layer    Maximum-Head-Change  Column Row Layer    Maximum-Flux-Residual          L2-NORM 
          0                 1           3            55    5     1      -0.9648134882E+00      55    5    1        -0.2261409799E-01      0.2062023427E+00
          0                 2           2            55    5     1       0.9464816788E-01      55    6    1         0.2171224645E-02      0.2058583650E-01
          0                 3           2            55    5     1      -0.8449581955E-02      55    6    1        -0.1952952104E-03      0.1852848783E-02
          0                 4           2            55    5     1       0.6705922641E-03      50    2    1         0.1564293821E-04      0.1485433465E-03
          0                 5           1            55    5     1      -0.4671498184E-04      50    2    1        -0.1099678069E-05      0.1046143984E-04
          0                 6           1            50    3     1       0.2805911254E-05      52    3    1         0.6748414272E-07      0.6295202013E-06
          0                 7           1            50    3     1      -0.1417852972E-06      52    3    1        -0.3553873640E-08      0.3187563025E-07

    ------------------------------------------------
       NWT REQUIRED            7 OUTER ITERATIONS 
       AND A TOTAL OF         12 INNER ITERATIONS.
    ------------------------------------------------

 NO OUTPUT CONTROL FOR STRESS PERIOD    2   TIME STEP   24
 
 SOLVING FOR HEAD 
                                                   Max.-Head-Change                         Max.-Flux-Residual
  Residual-Control   Outer-Iter.   Inner-Iter.     Column Row Layer    Maximum-Head-Change  Column Row Layer    Maximum-Flux-Residual          L2-NORM 
          0                 1           3            55    5     1      -0.1050873589E+01      55    5    1        -0.2239980360E-01      0.2045069390E+00
          0                 2           3            55    5     1       0.1029382559E+00      55    6    1         0.2152187436E-02      0.2040935196E-01
          0                 3           2            55    5     1      -0.9191024480E-02      55    6    1        -0.1935738518E-03      0.1836965899E-02
          0                 4           2            55    5     1       0.7294192699E-03      55    6    1         0.1550454651E-04      0.1472990602E-03
          0                 5           1            55    5     1      -0.5081131800E-04      50    2    1        -0.1089899824E-05      0.1037841939E-04
          0                 6           1            50    3     1       0.3053021029E-05      52    3    1         0.6725807467E-07      0.6232265388E-06
          0                 7           1            50    3     1      -0.1542859172E-06      52    3    1        -0.3572585783E-08      0.3150407337E-07

    ------------------------------------------------
       NWT REQUIRED            7 OUTER ITERATIONS 
       AND A TOTAL OF         13 INNER ITERATIONS.
    ------------------------------------------------

 NO OUTPUT CONTROL FOR STRESS PERIOD    2   TIME STEP   25
 
 SOLVING FOR HEAD 
                                                   Max.-Head-Change                         Max.-Flux-Residual
  Residual-Control   Outer-Iter.   Inner-Iter.     Column Row Layer    Maximum-Head-Change  Column Row Layer    Maximum-Flux-Residual          L2-NORM 
          0                 1           3            55    5     1      -0.1144355192E+01      55    5    1        -0.2218596655E-01      0.2027499701E+00
          0                 2           3            55    5     1       0.1119021852E+00      55    6    1         0.2133389258E-02      0.2022747197E-01
          0                 3           2            55    5     1      -0.9992954522E-02      55    6    1        -0.1918575380E-03      0.1820611068E-02
          0                 4           2            55    5     1       0.7930357188E-03      50    2    1         0.1536613510E-04      0.1460116481E-03
          0                 5           1            55    5     1      -0.5524201736E-04      50    2    1        -0.1080216720E-05      0.1029147379E-04
          0                 6           1            50    3     1       0.3318431726E-05      52    3    1         0.6702475552E-07      0.6162904807E-06
          0                 7           1            50    3     1      -0.1675981425E-06      52    3    1        -0.3590628239E-08      0.3108724947E-07

    ------------------------------------------------
       NWT REQUIRED            7 OUTER ITERATIONS 
       AND A TOTAL OF         13 INNER ITERATIONS.
    ------------------------------------------------

 NO OUTPUT CONTROL FOR STRESS PERIOD    2   TIME STEP   26
 
 SOLVING FOR HEAD 
                                                   Max.-Head-Change                         Max.-Flux-Residual
  Residual-Control   Outer-Iter.   Inner-Iter.     Column Row Layer    Maximum-Head-Change  Column Row Layer    Maximum-Flux-Residual          L2-NORM 
          0                 1           3            55    5     1      -0.1245893061E+01      55    5    1        -0.2196437385E-01      0.2009312582E+00
          0                 2           3            55    5     1       0.1215861273E+00      55    6    1         0.2115203224E-02      0.2003758399E-01
          0                 3           2            55    5     1      -0.1085963423E-01      55    6    1        -0.1901918302E-03      0.1803483192E-02
          0                 4           2            55    5     1       0.8617726915E-03      50    2    1         0.1523242329E-04      0.1446785251E-03
          0                 5           1            55    5     1      -0.6002791845E-04      50    2    1        -0.1070815376E-05      0.1020404167E-04
          0                 6           1            55    5     1       0.3603026239E-05      52    3    1         0.6676381403E-07      0.6088028418E-06
          0                 7           1            55    5     1      -0.1816719703E-06      52    3    1        -0.3601172693E-08      0.3063221287E-07

    ------------------------------------------------
       NWT REQUIRED            7 OUTER ITERATIONS 
       AND A TOTAL OF         13 INNER ITERATIONS.
    ------------------------------------------------

 NO OUTPUT CONTROL FOR STRESS PERIOD    2   TIME STEP   27
 
 SOLVING FOR HEAD 
                                                   Max.-Head-Change                         Max.-Flux-Residual
  Residual-Control   Outer-Iter.   Inner-Iter.     Column Row Layer    Maximum-Head-Change  Column Row Layer    Maximum-Flux-Residual          L2-NORM 
          0                 1           3            55    5     1      -0.1356326168E+01      55    5    1        -0.2174555995E-01      0.1990620567E+00
          0                 2           3            55    5     1       0.1320498695E+00      55    6    1         0.2098051499E-02      0.1984233553E-01
          0                 3           2            55    5     1      -0.1179663105E-01      55    6    1        -0.1886137662E-03      0.1785882225E-02
          0                 4           2            55    5     1       0.9360867053E-03      50    2    1         0.1510573851E-04      0.1432751954E-03
          0                 5           1            55    5     1      -0.6520797690E-04      50    2    1        -0.1061907719E-05      0.1010698367E-04
          0                 6           1            55    5     1       0.3919305959E-05      52    3    1         0.6674535769E-07      0.6001254335E-06
          0                 7           1            55    5     1      -0.1977624754E-06      52    3    1        -0.3643506830E-08      0.3012492110E-07

    ------------------------------------------------
       NWT REQUIRED            7 OUTER ITERATIONS 
       AND A TOTAL OF         13 INNER ITERATIONS.
    ------------------------------------------------

 NO OUTPUT CONTROL FOR STRESS PERIOD    2   TIME STEP   28
 
 SOLVING FOR HEAD 
                                                   Max.-Head-Change                         Max.-Flux-Residual
  Residual-Control   Outer-Iter.   Inner-Iter.     Column Row Layer    Maximum-Head-Change  Column Row Layer    Maximum-Flux-Residual          L2-NORM 
          0                 1           3            55    5     1      -0.1476533996E+01      55    5    1        -0.2152587578E-01      0.1971487417E+00
          0                 2           3            55    5     1       0.1433520849E+00      55    6    1         0.2082556447E-02      0.1964714640E-01
          0                 3           2            55    5     1      -0.1280901875E-01      55    6    1        -0.1871787606E-03      0.1768268949E-02
          0                 4           2            55    5     1       0.1016322503E-02      50    2    1         0.1499059211E-04      0.1419069460E-03
          0                 5           1            55    5     1      -0.7079268753E-04      50    2    1        -0.1053810879E-05      0.1001788758E-04
          0                 6           1            55    5     1       0.4255839270E-05      52    3    1         0.6684721576E-07      0.5919454512E-06
          0                 7           1            55    5     1      -0.2145741633E-06      52    3    1        -0.3689061501E-08      0.2968075467E-07

    ------------------------------------------------
       NWT REQUIRED            7 OUTER ITERATIONS 
       AND A TOTAL OF         13 INNER ITERATIONS.
    ------------------------------------------------

 NO OUTPUT CONTROL FOR STRESS PERIOD    2   TIME STEP   29
 
 SOLVING FOR HEAD 
                                                   Max.-Head-Change                         Max.-Flux-Residual
  Residual-Control   Outer-Iter.   Inner-Iter.     Column Row Layer    Maximum-Head-Change  Column Row Layer    Maximum-Flux-Residual          L2-NORM 
          0                 1           3            55    5     1      -0.1607584789E+01      55    5    1        -0.2130967597E-01      0.1951916925E+00
          0                 2           3            55    5     1       0.1555509958E+00      55    6    1         0.2069482942E-02      0.1944182087E-01
          0                 3           2            55    5     1      -0.1390188176E-01      55    6    1        -0.1859551691E-03      0.1749660171E-02
          0                 4           2            55    5     1       0.1102846556E-02      50    2    1         0.1489256966E-04      0.1404569197E-03
          0                 5           1            55    5     1      -0.7680253980E-04      50    2    1        -0.1046917463E-05      0.9923461933E-05
          0                 6           1            55    5     1       0.4610911499E-05      52    3    1         0.6673625919E-07      0.5826286509E-06
          0                 7           1            55    5     1      -0.2316720376E-06      52    3    1        -0.3699375029E-08      0.2920060100E-07

    ------------------------------------------------
       NWT REQUIRED            7 OUTER ITERATIONS 
       AND A TOTAL OF         13 INNER ITERATIONS.
    ------------------------------------------------

 NO OUTPUT CONTROL FOR STRESS PERIOD    2   TIME STEP   30



 STREAM LISTING     PERIOD      2   STEP       30

 LAYER ROW COL. STREAM  RCH.   FLOW INTO    STREAM     FLOW OUT OF   OVRLND.    DIRECT     STREAM      STREAM      STREAM     STREAM  STREAMBED   FLOW TO   CHNG. UNSAT. 
                SEG.NO.  NO.   STRM. RCH.    LOSS       STRM. RCH.   RUNOFF     PRECIP       ET         HEAD        DEPTH      WIDTH  CONDCTNC.   WAT. TAB.

   1    4    1     1     1    2.5330E+00  1.0459E-03   2.5320E+00  0.000E+00  0.000E+00  0.000E+00  1.41036E+02  1.186E+00  3.231E+00  6.205E-04  0.000E+00  1.046E-03
   1    4    2     1     2    2.5320E+00  1.0456E-03   2.5309E+00  0.000E+00  0.000E+00  0.000E+00  1.40735E+02  1.185E+00  3.231E+00  6.204E-04  0.000E+00  1.046E-03
   1    4    3     1     3    2.5309E+00  1.0453E-03   2.5299E+00  0.000E+00  0.000E+00  0.000E+00  1.40435E+02  1.185E+00  3.230E+00  6.203E-04  0.000E+00  1.045E-03
   1    4    4     1     4    2.5299E+00  1.0450E-03   2.5288E+00  0.000E+00  0.000E+00  0.000E+00  1.40135E+02  1.185E+00  3.230E+00  6.203E-04  0.000E+00  1.045E-03
   1    4    5     1     5    2.5288E+00  1.0447E-03   2.5278E+00  0.000E+00  0.000E+00  0.000E+00  1.39835E+02  1.185E+00  3.230E+00  6.202E-04  0.000E+00  1.045E-03
   1    4    6     1     6    2.5278E+00  1.0444E-03   2.5267E+00  0.000E+00  0.000E+00  0.000E+00  1.39534E+02  1.184E+00  3.229E+00  6.201E-04  0.000E+00  1.044E-03
   1    4    7     1     7    2.5267E+00  1.0441E-03   2.5257E+00  0.000E+00  0.000E+00  0.000E+00  1.39234E+02  1.184E+00  3.229E+00  6.200E-04  0.000E+00  1.044E-03
   1    4    8     1     8    2.5257E+00  1.0438E-03   2.5246E+00  0.000E+00  0.000E+00  0.000E+00  1.38934E+02  1.184E+00  3.229E+00  6.199E-04  0.000E+00  1.044E-03
   1    4    9     1     9    2.5246E+00  1.0435E-03   2.5236E+00  0.000E+00  0.000E+00  0.000E+00  1.38634E+02  1.184E+00  3.229E+00  6.198E-04  0.000E+00  1.044E-03
   1    4   10     1    10    2.5236E+00  1.0432E-03   2.5226E+00  0.000E+00  0.000E+00  0.000E+00  1.38333E+02  1.183E+00  3.228E+00  6.198E-04  0.000E+00  1.043E-03
   1    4   11     1    11    2.5226E+00  1.0429E-03   2.5215E+00  0.000E+00  0.000E+00  0.000E+00  1.38033E+02  1.183E+00  3.228E+00  6.197E-04  0.000E+00  1.043E-03
   1    4   12     1    12    2.5215E+00  1.0426E-03   2.5205E+00  0.000E+00  0.000E+00  0.000E+00  1.37733E+02  1.183E+00  3.228E+00  6.196E-04  0.000E+00  1.043E-03
   1    4   13     1    13    2.5205E+00  1.0423E-03   2.5194E+00  0.000E+00  0.000E+00  0.000E+00  1.37433E+02  1.183E+00  3.227E+00  6.195E-04  0.000E+00  1.042E-03
   1    4   14     1    14    2.5194E+00  1.0421E-03   2.5184E+00  0.000E+00  0.000E+00  0.000E+00  1.37132E+02  1.182E+00  3.227E+00  6.194E-04  0.000E+00  1.042E-03
   1    4   15     1    15    2.5184E+00  1.0418E-03   2.5173E+00  0.000E+00  0.000E+00  0.000E+00  1.36832E+02  1.182E+00  3.227E+00  6.193E-04  0.000E+00  1.042E-03
   1    4   16     1    16    2.5173E+00  1.0415E-03   2.5163E+00  0.000E+00  0.000E+00  0.000E+00  1.36532E+02  1.182E+00  3.226E+00  6.193E-04  0.000E+00  1.041E-03
   1    4   17     1    17    2.5163E+00  1.0412E-03   2.5153E+00  0.000E+00  0.000E+00  0.000E+00  1.36232E+02  1.182E+00  3.226E+00  6.192E-04  0.000E+00  1.041E-03
   1    4   18     1    18    2.5153E+00  1.0409E-03   2.5142E+00  0.000E+00  0.000E+00  0.000E+00  1.35931E+02  1.181E+00  3.226E+00  6.191E-04  0.000E+00  1.041E-03
   1    4   19     1    19    2.5142E+00  1.0406E-03   2.5132E+00  0.000E+00  0.000E+00  0.000E+00  1.35631E+02  1.181E+00  3.226E+00  6.190E-04  0.000E+00  1.041E-03
   1    4   20     1    20    2.5132E+00  1.0403E-03   2.5121E+00  0.000E+00  0.000E+00  0.000E+00  1.35331E+02  1.181E+00  3.225E+00  6.189E-04  0.000E+00  1.040E-03
   1    4   21     1    21    2.5121E+00  1.0400E-03   2.5111E+00  0.000E+00  0.000E+00  0.000E+00  1.35031E+02  1.181E+00  3.225E+00  6.189E-04  0.000E+00  1.040E-03
   1    4   22     1    22    2.5111E+00  1.0397E-03   2.5101E+00  0.000E+00  0.000E+00  0.000E+00  1.34730E+02  1.180E+00  3.225E+00  6.188E-04  0.000E+00  1.040E-03
   1    4   23     1    23    2.5101E+00  1.0394E-03   2.5090E+00  0.000E+00  0.000E+00  0.000E+00  1.34430E+02  1.180E+00  3.224E+00  6.187E-04  0.000E+00  1.039E-03
   1    4   24     1    24    2.5090E+00  1.0391E-03   2.5080E+00  0.000E+00  0.000E+00  0.000E+00  1.34130E+02  1.180E+00  3.224E+00  6.186E-04  0.000E+00  1.039E-03
   1    4   25     1    25    2.5080E+00  1.0388E-03   2.5069E+00  0.000E+00  0.000E+00  0.000E+00  1.33829E+02  1.179E+00  3.224E+00  6.185E-04  0.000E+00  1.039E-03
   1    4   26     1    26    2.5069E+00  1.0385E-03   2.5059E+00  0.000E+00  0.000E+00  0.000E+00  1.33529E+02  1.179E+00  3.223E+00  6.184E-04  0.000E+00  1.039E-03
   1    4   27     1    27    2.5059E+00  1.0382E-03   2.5049E+00  0.000E+00  0.000E+00  0.000E+00  1.33229E+02  1.179E+00  3.223E+00  6.184E-04  0.000E+00  1.038E-03
   1    4   28     1    28    2.5049E+00  1.0379E-03   2.5038E+00  0.000E+00  0.000E+00  0.000E+00  1.32929E+02  1.179E+00  3.223E+00  6.183E-04  0.000E+00  1.038E-03
   1    4   29     1    29    2.5038E+00  1.0376E-03   2.5028E+00  0.000E+00  0.000E+00  0.000E+00  1.32628E+02  1.178E+00  3.222E+00  6.182E-04  0.000E+00  1.038E-03
   1    4   30     1    30    2.5028E+00  1.0373E-03   2.5018E+00  0.000E+00  0.000E+00  0.000E+00  1.32328E+02  1.178E+00  3.222E+00  6.181E-04  0.000E+00  1.037E-03
   1    4   31     1    31    2.5018E+00  1.0370E-03   2.5007E+00  0.000E+00  0.000E+00  0.000E+00  1.32028E+02  1.178E+00  3.222E+00  6.180E-04  0.000E+00  1.037E-03
   1    4   32     1    32    2.5007E+00  1.0367E-03   2.4997E+00  0.000E+00  0.000E+00  0.000E+00  1.31728E+02  1.178E+00  3.222E+00  6.179E-04  0.000E+00  1.037E-03
   1    4   33     1    33    2.4997E+00  1.0365E-03   2.4986E+00  0.000E+00  0.000E+00  0.000E+00  1.31427E+02  1.177E+00  3.221E+00  6.179E-04  0.000E+00  1.036E-03
   1    4   34     1    34    2.4986E+00  1.0362E-03   2.4976E+00  0.000E+00  0.000E+00  0.000E+00  1.31127E+02  1.177E+00  3.221E+00  6.178E-04  0.000E+00  1.036E-03
   1    4   35     1    35    2.4976E+00  1.0359E-03   2.4966E+00  0.000E+00  0.000E+00  0.000E+00  1.30827E+02  1.177E+00  3.221E+00  6.177E-04  0.000E+00  1.036E-03
   1    4   36     1    36    2.4966E+00  1.0356E-03   2.4955E+00  0.000E+00  0.000E+00  0.000E+00  1.30527E+02  1.177E+00  3.220E+00  6.176E-04  0.000E+00  1.036E-03
   1    4   37     1    37    2.4955E+00  1.0353E-03   2.4945E+00  0.000E+00  0.000E+00  0.000E+00  1.30226E+02  1.176E+00  3.220E+00  6.175E-04  0.000E+00  1.035E-03
   1    4   38     1    38    2.4945E+00  1.0350E-03   2.4935E+00  0.000E+00  0.000E+00  0.000E+00  1.29926E+02  1.176E+00  3.220E+00  6.175E-04  0.000E+00  1.035E-03
   1    4   39     1    39    2.4935E+00  1.0347E-03   2.4924E+00  0.000E+00  0.000E+00  0.000E+00  1.29626E+02  1.176E+00  3.219E+00  6.174E-04  0.000E+00  1.035E-03
   1    4   40     1    40    2.4924E+00  1.0344E-03   2.4914E+00  0.000E+00  0.000E+00  0.000E+00  1.29326E+02  1.176E+00  3.219E+00  6.173E-04  0.000E+00  1.034E-03
   1    4   41     1    41    2.4914E+00  1.0341E-03   2.4904E+00  0.000E+00  0.000E+00  0.000E+00  1.29025E+02  1.175E+00  3.219E+00  6.172E-04  0.000E+00  1.034E-03
   1    4   42     1    42    2.4904E+00  1.0338E-03   2.4893E+00  0.000E+00  0.000E+00  0.000E+00  1.28725E+02  1.175E+00  3.219E+00  6.171E-04  0.000E+00  1.034E-03
   1    4   43     1    43    2.4893E+00  1.0335E-03   2.4883E+00  0.000E+00  0.000E+00  0.000E+00  1.28425E+02  1.175E+00  3.218E+00  6.170E-04  0.000E+00  1.034E-03
   1    4   44     1    44    2.4883E+00  1.0332E-03   2.4873E+00  0.000E+00  0.000E+00  0.000E+00  1.28125E+02  1.175E+00  3.218E+00  6.170E-04  0.000E+00  1.033E-03
   1    4   45     1    45    2.4873E+00  1.0329E-03   2.4862E+00  0.000E+00  0.000E+00  0.000E+00  1.27824E+02  1.174E+00  3.218E+00  6.169E-04  0.000E+00  1.033E-03
   1    4   46     1    46    2.4862E+00  1.0326E-03   2.4852E+00  0.000E+00  0.000E+00  0.000E+00  1.27524E+02  1.174E+00  3.217E+00  6.168E-04  0.000E+00  1.033E-03
   1    4   47     1    47    2.4852E+00  1.0323E-03   2.4842E+00  0.000E+00  0.000E+00  0.000E+00  1.27224E+02  1.174E+00  3.217E+00  6.167E-04  0.000E+00  1.032E-03
   1    4   48     1    48    2.4842E+00  1.0320E-03   2.4831E+00  0.000E+00  0.000E+00  0.000E+00  1.26924E+02  1.174E+00  3.217E+00  6.166E-04  0.000E+00  1.032E-03
   1    4   49     1    49    2.4831E+00  1.0318E-03   2.4821E+00  0.000E+00  0.000E+00  0.000E+00  1.26623E+02  1.173E+00  3.216E+00  6.165E-04  0.000E+00  1.032E-03
   1    4   50     1    50    2.4821E+00  1.0315E-03   2.4811E+00  0.000E+00  0.000E+00  0.000E+00  1.26323E+02  1.173E+00  3.216E+00  6.165E-04  0.000E+00  1.031E-03
   1    4   51     1    51    2.4811E+00  1.0312E-03   2.4800E+00  0.000E+00  0.000E+00  0.000E+00  1.26023E+02  1.173E+00  3.216E+00  6.164E-04  0.000E+00  1.031E-03
   1    4   52     1    52    2.4800E+00  1.0309E-03   2.4790E+00  0.000E+00  0.000E+00  0.000E+00  1.25723E+02  1.173E+00  3.216E+00  6.163E-04  0.000E+00  1.031E-03
   1    4   53     1    53    2.4790E+00  1.0306E-03   2.4780E+00  0.000E+00  0.000E+00  0.000E+00  1.25422E+02  1.172E+00  3.215E+00  6.162E-04  0.000E+00  1.031E-03
   1    4   54     1    54    2.4780E+00  1.0303E-03   2.4769E+00  0.000E+00  0.000E+00  0.000E+00  1.25122E+02  1.172E+00  3.215E+00  6.161E-04  0.000E+00  1.030E-03
   1    4   55     1    55    2.4769E+00  1.0300E-03   2.4759E+00  0.000E+00  0.000E+00  0.000E+00  1.24822E+02  1.172E+00  3.215E+00  6.161E-04  0.000E+00  1.030E-03
   1    4   56     1    56    2.4759E+00  1.0297E-03   2.4749E+00  0.000E+00  0.000E+00  0.000E+00  1.24522E+02  1.172E+00  3.214E+00  6.160E-04  0.000E+00  1.030E-03
   1    4   57     1    57    2.4749E+00  1.0294E-03   2.4739E+00  0.000E+00  0.000E+00  0.000E+00  1.24221E+02  1.171E+00  3.214E+00  6.159E-04  0.000E+00  1.029E-03
   1    4   58     1    58    2.4739E+00  1.0291E-03   2.4728E+00  0.000E+00  0.000E+00  0.000E+00  1.23921E+02  1.171E+00  3.214E+00  6.158E-04  0.000E+00  1.029E-03
   1    4   59     1    59    2.4728E+00  1.0288E-03   2.4718E+00  0.000E+00  0.000E+00  0.000E+00  1.23621E+02  1.171E+00  3.213E+00  6.157E-04  0.000E+00  1.029E-03
   1    4   60     1    60    2.4718E+00  1.0285E-03   2.4708E+00  0.000E+00  0.000E+00  0.000E+00  1.23321E+02  1.171E+00  3.213E+00  6.156E-04  0.000E+00  1.029E-03
   1    4   61     1    61    2.4708E+00  1.0282E-03   2.4697E+00  0.000E+00  0.000E+00  0.000E+00  1.23020E+02  1.170E+00  3.213E+00  6.156E-04  0.000E+00  1.028E-03
   1    4   62     1    62    2.4697E+00  1.0279E-03   2.4687E+00  0.000E+00  0.000E+00  0.000E+00  1.22720E+02  1.170E+00  3.213E+00  6.155E-04  0.000E+00  1.028E-03
   1    4   63     1    63    2.4687E+00  1.0277E-03   2.4677E+00  0.000E+00  0.000E+00  0.000E+00  1.22420E+02  1.170E+00  3.212E+00  6.154E-04  3.372E-04  6.904E-04
   1    4   64     1    64    2.4677E+00  1.0274E-03   2.4667E+00  0.000E+00  0.000E+00  0.000E+00  1.22120E+02  1.170E+00  3.212E+00  6.153E-04  7.379E-04  2.895E-04
   1    4   65     1    65    2.4667E+00  1.0271E-03   2.4656E+00  0.000E+00  0.000E+00  0.000E+00  1.21819E+02  1.169E+00  3.212E+00  6.152E-04  7.685E-04  2.586E-04
   1    4   66     1    66    2.4656E+00  1.0268E-03   2.4646E+00  0.000E+00  0.000E+00  0.000E+00  1.21519E+02  1.169E+00  3.211E+00  6.151E-04  7.968E-04  2.300E-04
   1    4   67     1    67    2.4646E+00  1.0265E-03   2.4636E+00  0.000E+00  0.000E+00  0.000E+00  1.21219E+02  1.169E+00  3.211E+00  6.151E-04  8.228E-04  2.037E-04
   1    4   68     1    68    2.4636E+00  1.0262E-03   2.4626E+00  0.000E+00  0.000E+00  0.000E+00  1.20919E+02  1.169E+00  3.211E+00  6.150E-04  8.462E-04  1.800E-04
   1    4   69     1    69    2.4626E+00  1.0259E-03   2.4615E+00  0.000E+00  0.000E+00  0.000E+00  1.20618E+02  1.168E+00  3.210E+00  6.149E-04  8.672E-04  1.587E-04
   1    4   70     1    70    2.4615E+00  1.0256E-03   2.4605E+00  0.000E+00  0.000E+00  0.000E+00  1.20318E+02  1.168E+00  3.210E+00  6.148E-04  8.855E-04  1.401E-04
   1    4   71     1    71    2.4605E+00  1.0253E-03   2.4595E+00  0.000E+00  0.000E+00  0.000E+00  1.20018E+02  1.168E+00  3.210E+00  6.147E-04  9.013E-04  1.240E-04
   1    4   72     1    72    2.4595E+00  1.0250E-03   2.4584E+00  0.000E+00  0.000E+00  0.000E+00  1.19718E+02  1.168E+00  3.210E+00  6.147E-04  9.145E-04  1.105E-04
   1    4   73     1    73    2.4584E+00  1.0247E-03   2.4574E+00  0.000E+00  0.000E+00  0.000E+00  1.19417E+02  1.167E+00  3.209E+00  6.146E-04  9.251E-04  9.960E-05
   1    4   74     1    74    2.4574E+00  1.0244E-03   2.4564E+00  0.000E+00  0.000E+00  0.000E+00  1.19117E+02  1.167E+00  3.209E+00  6.145E-04  9.333E-04  9.113E-05
   1    4   75     1    75    2.4564E+00  1.0242E-03   2.4554E+00  0.000E+00  0.000E+00  0.000E+00  1.18817E+02  1.167E+00  3.209E+00  6.144E-04  9.391E-04  8.504E-05
   1    4   76     1    76    2.4554E+00  1.0239E-03   2.4544E+00  0.000E+00  0.000E+00  0.000E+00  1.18517E+02  1.167E+00  3.208E+00  6.143E-04  9.426E-04  8.122E-05
   1    4   77     1    77    2.4544E+00  1.0236E-03   2.4533E+00  0.000E+00  0.000E+00  0.000E+00  1.18216E+02  1.166E+00  3.208E+00  6.142E-04  9.440E-04  7.955E-05
   1    4   78     1    78    2.4533E+00  1.0233E-03   2.4523E+00  0.000E+00  0.000E+00  0.000E+00  1.17916E+02  1.166E+00  3.208E+00  6.142E-04  9.434E-04  7.986E-05
   1    4   79     1    79    2.4523E+00  1.0230E-03   2.4513E+00  0.000E+00  0.000E+00  0.000E+00  1.17616E+02  1.166E+00  3.207E+00  6.141E-04  9.410E-04  8.197E-05
   1    4   80     1    80    2.4513E+00  1.0227E-03   2.4503E+00  0.000E+00  0.000E+00  0.000E+00  1.17316E+02  1.166E+00  3.207E+00  6.140E-04  9.370E-04  8.568E-05
   1    4   81     1    81    2.4503E+00  1.0224E-03   2.4492E+00  0.000E+00  0.000E+00  0.000E+00  1.17015E+02  1.165E+00  3.207E+00  6.139E-04  9.317E-04  9.076E-05
   1    4   82     1    82    2.4492E+00  1.0221E-03   2.4482E+00  0.000E+00  0.000E+00  0.000E+00  1.16715E+02  1.165E+00  3.207E+00  6.138E-04  9.252E-04  9.695E-05
   1    4   83     1    83    2.4482E+00  1.0218E-03   2.4472E+00  0.000E+00  0.000E+00  0.000E+00  1.16415E+02  1.165E+00  3.206E+00  6.138E-04  9.178E-04  1.040E-04
   1    4   84     1    84    2.4472E+00  1.0215E-03   2.4462E+00  0.000E+00  0.000E+00  0.000E+00  1.16115E+02  1.165E+00  3.206E+00  6.137E-04  9.100E-04  1.115E-04
   1    4   85     1    85    2.4462E+00  1.0212E-03   2.4451E+00  0.000E+00  0.000E+00  0.000E+00  1.15814E+02  1.164E+00  3.206E+00  6.136E-04  9.020E-04  1.192E-04
   1    4   86     1    86    2.4451E+00  1.0210E-03   2.4441E+00  0.000E+00  0.000E+00  0.000E+00  1.15514E+02  1.164E+00  3.205E+00  6.135E-04  8.942E-04  1.268E-04
   1    4   87     1    87    2.4441E+00  1.0207E-03   2.4431E+00  0.000E+00  0.000E+00  0.000E+00  1.15214E+02  1.164E+00  3.205E+00  6.134E-04  8.870E-04  1.337E-04
   1    4   88     1    88    2.4431E+00  1.0204E-03   2.4421E+00  0.000E+00  0.000E+00  0.000E+00  1.14914E+02  1.164E+00  3.205E+00  6.133E-04  8.808E-04  1.396E-04
   1    4   89     1    89    2.4421E+00  1.0201E-03   2.4411E+00  0.000E+00  0.000E+00  0.000E+00  1.14613E+02  1.163E+00  3.204E+00  6.133E-04  8.761E-04  1.440E-04
   1    4   90     1    90    2.4411E+00  1.0198E-03   2.4400E+00  0.000E+00  0.000E+00  0.000E+00  1.14313E+02  1.163E+00  3.204E+00  6.132E-04  8.733E-04  1.465E-04
   1    4   91     1    91    2.4400E+00  1.0195E-03   2.4390E+00  0.000E+00  0.000E+00  0.000E+00  1.14013E+02  1.163E+00  3.204E+00  6.131E-04  8.729E-04  1.466E-04
   1    4   92     1    92    2.4390E+00  1.0192E-03   2.4380E+00  0.000E+00  0.000E+00  0.000E+00  1.13713E+02  1.163E+00  3.203E+00  6.130E-04  8.752E-04  1.440E-04
   1    4   93     1    93    2.4380E+00  1.0189E-03   2.4370E+00  0.000E+00  0.000E+00  0.000E+00  1.13412E+02  1.162E+00  3.203E+00  6.129E-04  8.807E-04  1.383E-04
   1    4   94     1    94    2.4370E+00  1.0186E-03   2.4360E+00  0.000E+00  0.000E+00  0.000E+00  1.13112E+02  1.162E+00  3.203E+00  6.129E-04  8.897E-04  1.289E-04
   1    4   95     1    95    2.4360E+00  1.0183E-03   2.4350E+00  0.000E+00  0.000E+00  0.000E+00  1.12812E+02  1.162E+00  3.203E+00  6.128E-04  9.030E-04  1.154E-04
   1    4   96     1    96    2.4350E+00  1.0181E-03   2.4339E+00  0.000E+00  0.000E+00  0.000E+00  1.12512E+02  1.162E+00  3.202E+00  6.127E-04  3.698E-04  6.483E-04
   1    4   97     1    97    2.4339E+00  1.0178E-03   2.4329E+00  0.000E+00  0.000E+00  0.000E+00  1.12211E+02  1.161E+00  3.202E+00  6.126E-04  0.000E+00  1.018E-03
   1    4   98     1    98    2.4329E+00  1.0175E-03   2.4319E+00  0.000E+00  0.000E+00  0.000E+00  1.11911E+02  1.161E+00  3.202E+00  6.125E-04  0.000E+00  1.017E-03
   1    4   99     1    99    2.4319E+00  1.0172E-03   2.4309E+00  0.000E+00  0.000E+00  0.000E+00  1.11611E+02  1.161E+00  3.201E+00  6.124E-04  0.000E+00  1.017E-03
   1    4  100     1   100    2.4309E+00  1.0169E-03   2.4299E+00  0.000E+00  0.000E+00  0.000E+00  1.11311E+02  1.161E+00  3.201E+00  6.124E-04  0.000E+00  1.017E-03



1
  VOLUMETRIC BUDGET FOR UNSATURATED ZONE BENEATH STREAMS AT END OF TIME STEP    30 STRESS PERIOD   2
  ------------------------------------------------------------------------------------------------

    CUMULATIVE VOLUMES             L**3    RATES FOR THIS TIME STEP         L**3/T
    ------------------                     ------------------------


          STREAM LOSS =       355607.1875            STREAM LOSS =            0.1031
    CHANGE IN STORAGE =       313926.2500      CHANGE IN STORAGE =        7.3961E-02
       RECHARGE TO GW =        41680.7578         RECHARGE TO GW =        2.9173E-02

             TOTAL IN =       355607.1875               TOTAL IN =            0.1031

            TOTAL OUT =       355607.0000              TOTAL OUT =            0.1031

             IN - OUT =            0.1875               IN - OUT =       -7.4506E-09

  PERCENT DISCREPANCY =            0.00      PERCENT DISCREPANCY =            -0.00



1
  VOLUMETRIC BUDGET FOR ENTIRE MODEL AT END OF TIME STEP   30, STRESS PERIOD   2
  ------------------------------------------------------------------------------

     CUMULATIVE VOLUMES      L**3       RATES FOR THIS TIME STEP      L**3/T
     ------------------                 ------------------------

           IN:                                      IN:
           ---                                      ---
             STORAGE     =    19900326.0000               STORAGE     =           3.3558
       CONSTANT HEAD     =           0.0000         CONSTANT HEAD     =           0.0000
               WELLS     =           0.0000                 WELLS     =           0.0000
     HEAD DEP BOUNDS     =           0.0000       HEAD DEP BOUNDS     =           0.0000
      STREAM LEAKAGE     =       41680.7617        STREAM LEAKAGE     =       2.9173E-02

                TOTAL IN =    19942006.0000                  TOTAL IN =           3.3850

          OUT:                                     OUT:
          ----                                     ----
             STORAGE     =       9.6035E-08               STORAGE     =           0.0000
       CONSTANT HEAD     =           0.0000         CONSTANT HEAD     =           0.0000
               WELLS     =    14878080.0000                 WELLS     =           2.9000
     HEAD DEP BOUNDS     =     5063925.0000       HEAD DEP BOUNDS     =           0.4850
      STREAM LEAKAGE     =           0.0000        STREAM LEAKAGE     =           0.0000

               TOTAL OUT =    19942004.0000                 TOTAL OUT =           3.3850

                IN - OUT =           2.0000                  IN - OUT =           0.0000

     PERCENT DISCREPANCY =           0.00         PERCENT DISCREPANCY =           0.00






         TIME SUMMARY AT END OF TIME STEP   30 IN STRESS PERIOD    2
                    SECONDS     MINUTES      HOURS       DAYS        YEARS
                    -----------------------------------------------------------
   TIME STEP LENGTH 2.49961E+05  4166.0      69.434      2.8931     7.92080E-03
 STRESS PERIOD TIME 2.59200E+06  43200.      720.00      30.000     8.21355E-02
         TOTAL TIME 5.18400E+06  86400.      1440.0      60.000     0.16427    
1
1
                            STRESS PERIOD NO.    3, LENGTH =   2592000.    
                            -----------------------------------------------

                              NUMBER OF TIME STEPS =    30

                               MULTIPLIER FOR DELT =     1.100

                            INITIAL TIME STEP SIZE =   15757.40    

 REUSING NON-PARAMETER WELLS FROM LAST STRESS PERIOD

      1 WELL 

 REUSING NON-PARAMETER GHB CELLS FROM LAST STRESS PERIOD

      7 GHB CELLS



 CLASSIFICATION & COUNT OF STREAM SEGMENTS BASED ON SOURCE OF INFLOW:

                HEADWATER     DIVERSION     RECEIVES TRIBUTARY FLOW
                ---------     ---------     -----------------------
                     1              0               0



                    INPUT DATA FOR EACH STREAM SEGMENT
 ---------------------------------------------------------------------------------------------

 SEGMENT    SEG.     INFLOW   OVERLAND   STREAM    STREAM   ICALC  OUTFLOW  DIVERSION PRIORITY
    NO.    LENGTH     RATE     RUNOFF      ET       PPT.    METH.  TO SEG.  FROM SEG.    NO.

      1  2.000E+04 3.840E+00 0.000E+00 0.000E+00 0.000E+00    2        0        0        0


         STREAMBED PROPERTIES AND STREAM DIMENSIONS

 SEGMENT     BED HYD. COND.      BED THICKNESS     ELEV.-TOP OF BED     WIDTH OF STREAM     DEPTH OF STREAM    STREAM ROUGHNESS
    No.     UPPER     LOWER     UPPER     LOWER     UPPER     LOWER     UPPER     LOWER     UPPER     LOWER   CHANNEL      BANK

     1  3.500E-07 3.500E-07                                                                                 3.000E-02 4.000E-02

  EIGHT POINT CROSS-SECTION DATA FOR SEGMENTS WITH ICALC = 2
    X VALUES X VALUES START FROM LEFT SIDE LOOKING DOWNSTREAM

     SEGMENT NO.        X1        X2        X3        X4        X5        X6        X7        X8
            1      0.000E+00 2.000E+00 4.000E+00 6.000E+00 8.000E+00 1.000E+01 1.200E+01 1.400E+01

    Z VALUES ARE RELATIVE TO STREAMBED ELEVATION

     SEGMENT NO.          Z1        Z2        Z3        Z4        Z5        Z6        Z7        Z8
            1      6.000E+00 4.500E+00 3.500E+00 0.000E+00 3.000E-01 3.500E+00 4.500E+00 6.000E+00



 
 SOLVING FOR HEAD 
                                                   Max.-Head-Change                         Max.-Flux-Residual
  Residual-Control   Outer-Iter.   Inner-Iter.     Column Row Layer    Maximum-Head-Change  Column Row Layer    Maximum-Flux-Residual          L2-NORM 
          0                 1           2            50    3     1       0.8316041241E+00      50    3    1         0.3589029765E+00      0.5422718195E+00
          0                 2           2            50    3     1      -0.8294261640E-01      50    3    1        -0.3629964281E-01      0.5477682917E-01
          0                 3           2            50    3     1       0.7391726683E-02      50    3    1         0.3262972174E-02      0.4924160679E-02
          0                 4           2            50    3     1      -0.5867475807E-03      50    3    1        -0.2613959420E-03      0.3945242787E-03
          0                 5           1            50    3     1       0.4087356105E-04      50    3    1         0.1837568068E-04      0.2774085223E-04
          0                 6           1            50    3     1      -0.2454330959E-05      50    3    1        -0.1113488670E-05      0.1681424420E-05
          0                 7           1            50    3     1       0.1240133421E-06      50    3    1         0.5677653014E-07      0.8575690633E-07

    ------------------------------------------------
       NWT REQUIRED            7 OUTER ITERATIONS 
       AND A TOTAL OF         11 INNER ITERATIONS.
    ------------------------------------------------

 NO OUTPUT CONTROL FOR STRESS PERIOD    3   TIME STEP    1
 
 SOLVING FOR HEAD 
                                                   Max.-Head-Change                         Max.-Flux-Residual
  Residual-Control   Outer-Iter.   Inner-Iter.     Column Row Layer    Maximum-Head-Change  Column Row Layer    Maximum-Flux-Residual          L2-NORM 
          0                 1           2            50    3     1       0.4754372115E+00      50    3    1         0.1726228213E+00      0.3041082560E+00
          0                 2           2            50    3     1      -0.4740207626E-01      50    3    1        -0.1746773340E-01      0.3057301513E-01
          0                 3           2            50    3     1       0.4224531115E-02      50    3    1         0.1570061146E-02      0.2749271445E-02
          0                 4           2            50    3     1      -0.3353378342E-03      50    3    1        -0.1257781000E-03      0.2203375100E-03
          0                 5           1            50    3     1       0.2336004343E-04      50    3    1         0.8841976488E-05      0.1550209859E-04
          0                 6           1            50    3     1      -0.1402686878E-05      50    3    1        -0.5357817194E-06      0.9402480106E-06
          0                 7           1            50    3     1       0.7087482161E-07      55    5    1         0.2731922688E-07      0.4798683828E-07

    ------------------------------------------------
       NWT REQUIRED            7 OUTER ITERATIONS 
       AND A TOTAL OF         11 INNER ITERATIONS.
    ------------------------------------------------

 NO OUTPUT CONTROL FOR STRESS PERIOD    3   TIME STEP    2
 
 SOLVING FOR HEAD 
                                                   Max.-Head-Change                         Max.-Flux-Residual
  Residual-Control   Outer-Iter.   Inner-Iter.     Column Row Layer    Maximum-Head-Change  Column Row Layer    Maximum-Flux-Residual          L2-NORM 
          0                 1           2            50    3     1       0.2885209338E+00      50    3    1         0.8970260316E-01      0.2162684324E+00
          0                 2           2            50    3     1      -0.2870275088E-01      50    3    1        -0.9046468990E-02      0.2161831180E-01
          0                 3           2            50    3     1       0.2558653299E-02      50    3    1         0.8134263009E-03      0.1944731290E-02
          0                 4           2            50    3     1      -0.2030975431E-03      50    3    1        -0.6516146934E-04      0.1559365762E-03
          0                 5           1            50    3     1       0.1414804185E-04      50    3    1         0.4580750220E-05      0.1098186396E-04
          0                 6           1            50    3     1      -0.8495249302E-06      50    3    1        -0.2775661994E-06      0.6668586883E-06

    ------------------------------------------------
       NWT REQUIRED            6 OUTER ITERATIONS 
       AND A TOTAL OF         10 INNER ITERATIONS.
    ------------------------------------------------

 NO OUTPUT CONTROL FOR STRESS PERIOD    3   TIME STEP    3
 
 SOLVING FOR HEAD 
                                                   Max.-Head-Change                         Max.-Flux-Residual
  Residual-Control   Outer-Iter.   Inner-Iter.     Column Row Layer    Maximum-Head-Change  Column Row Layer    Maximum-Flux-Residual          L2-NORM 
          0                 1           2            50    3     1       0.1807742164E+00      50    3    1         0.4951252400E-01      0.1792691512E+00
          0                 2           2            50    3     1      -0.1794903844E-01      50    3    1        -0.4976851942E-02      0.1787120833E-01
          0                 3           2            50    3     1       0.1600381712E-02      50    3    1         0.4476633255E-03      0.1607756427E-02
          0                 4           2            50    3     1      -0.1270302775E-03      50    3    1        -0.3585985514E-04      0.1289863318E-03
          0                 5           1            50    3     1       0.8849099069E-05      50    3    1         0.2520900338E-05      0.9093141056E-05
          0                 6           1            50    3     1      -0.5313320446E-06      50    3    1        -0.1527460878E-06      0.5528606529E-06

    ------------------------------------------------
       NWT REQUIRED            6 OUTER ITERATIONS 
       AND A TOTAL OF         10 INNER ITERATIONS.
    ------------------------------------------------

 NO OUTPUT CONTROL FOR STRESS PERIOD    3   TIME STEP    4
 
 SOLVING FOR HEAD 
                                                   Max.-Head-Change                         Max.-Flux-Residual
  Residual-Control   Outer-Iter.   Inner-Iter.     Column Row Layer    Maximum-Head-Change  Column Row Layer    Maximum-Flux-Residual          L2-NORM 
          0                 1           2            53    1     1      -0.1140873801E+00      50    3    1         0.2819411815E-01      0.1609942964E+00
          0                 2           2            53    1     1       0.1129535206E-01      50    3    1        -0.2826466240E-02      0.1602817160E-01
          0                 3           2            53    1     1      -0.1007444436E-02      50    3    1         0.2543124112E-03      0.1441873319E-02
          0                 4           1            53    1     1       0.7996317622E-04      50    3    1        -0.2037098245E-04      0.1157412977E-03
          0                 5           1            53    1     1      -0.5570247366E-05      50    3    1         0.1431886371E-05      0.8167403712E-05
          0                 6           1            53    1     1       0.3344689383E-06      55    5    1        -0.8675943608E-07      0.4972254716E-06

    ------------------------------------------------
       NWT REQUIRED            6 OUTER ITERATIONS 
       AND A TOTAL OF          9 INNER ITERATIONS.
    ------------------------------------------------

 NO OUTPUT CONTROL FOR STRESS PERIOD    3   TIME STEP    5
 
 SOLVING FOR HEAD 
                                                   Max.-Head-Change                         Max.-Flux-Residual
  Residual-Control   Outer-Iter.   Inner-Iter.     Column Row Layer    Maximum-Head-Change  Column Row Layer    Maximum-Flux-Residual          L2-NORM 
          0                 1           2            53    1     1      -0.1161144861E+00      53    1    1        -0.1618578870E-01      0.1506813561E+00
          0                 2           2            53    1     1       0.1149481796E-01      53    1    1         0.1616575944E-02      0.1499171378E-01
          0                 3           2            53    1     1      -0.1025247133E-02      53    1    1        -0.1455114728E-03      0.1348568966E-02
          0                 4           1            53    1     1       0.8137607750E-04      53    1    1         0.1165531585E-04      0.1082983389E-03
          0                 5           1            53    1     1      -0.5668626285E-05      53    1    1        -0.8193583767E-06      0.7648384020E-05
          0                 6           1            53    1     1       0.3403730332E-06      53    1    1         0.4964987887E-07      0.4661389645E-06

    ------------------------------------------------
       NWT REQUIRED            6 OUTER ITERATIONS 
       AND A TOTAL OF          9 INNER ITERATIONS.
    ------------------------------------------------

 NO OUTPUT CONTROL FOR STRESS PERIOD    3   TIME STEP    6
 
 SOLVING FOR HEAD 
                                                   Max.-Head-Change                         Max.-Flux-Residual
  Residual-Control   Outer-Iter.   Inner-Iter.     Column Row Layer    Maximum-Head-Change  Column Row Layer    Maximum-Flux-Residual          L2-NORM 
          0                 1           2            53    1     1      -0.1172715416E+00      53    1    1        -0.1497595910E-01      0.1442812389E+00
          0                 2           2            53    1     1       0.1160902459E-01      53    1    1         0.1495566477E-02      0.1434586621E-01
          0                 3           2            53    1     1      -0.1035435993E-02      53    1    1        -0.1346208621E-03      0.1290363926E-02
          0                 4           1            53    1     1       0.8218471275E-04      53    1    1         0.1078297575E-04      0.1036725274E-03
          0                 5           1            53    1     1      -0.5724896017E-05      53    1    1        -0.7580337282E-06      0.7328356852E-05
          0                 6           1            53    1     1       0.3437475229E-06      53    1    1         0.4593385050E-07      0.4471984822E-06

    ------------------------------------------------
       NWT REQUIRED            6 OUTER ITERATIONS 
       AND A TOTAL OF          9 INNER ITERATIONS.
    ------------------------------------------------

 NO OUTPUT CONTROL FOR STRESS PERIOD    3   TIME STEP    7
 
 SOLVING FOR HEAD 
                                                   Max.-Head-Change                         Max.-Flux-Residual
  Residual-Control   Outer-Iter.   Inner-Iter.     Column Row Layer    Maximum-Head-Change  Column Row Layer    Maximum-Flux-Residual          L2-NORM 
          0                 1           2            53    1     1      -0.1180832475E+00      53    1    1        -0.1375021393E-01      0.1400532917E+00
          0                 2           2            53    1     1       0.1168936346E-01      53    1    1         0.1373085347E-02      0.1392192495E-01
          0                 3           2            53    1     1      -0.1042602496E-02      53    1    1        -0.1235966370E-03      0.1252261359E-02
          0                 4           1            53    1     1       0.8275344830E-04      53    1    1         0.9899942439E-05      0.1006503821E-03
          0                 5           1            53    1     1      -0.5764431303E-05      53    1    1        -0.6959572971E-06      0.7119774929E-05
          0                 6           1            53    1     1       0.3461156458E-06      53    1    1         0.4217225502E-07      0.4349078972E-06

    ------------------------------------------------
       NWT REQUIRED            6 OUTER ITERATIONS 
       AND A TOTAL OF          9 INNER ITERATIONS.
    ------------------------------------------------

 NO OUTPUT CONTROL FOR STRESS PERIOD    3   TIME STEP    8
 
 SOLVING FOR HEAD 
                                                   Max.-Head-Change                         Max.-Flux-Residual
  Residual-Control   Outer-Iter.   Inner-Iter.     Column Row Layer    Maximum-Head-Change  Column Row Layer    Maximum-Flux-Residual          L2-NORM 
          0                 1           2            59    1     1      -0.1255369328E+00      53    1    1        -0.1258671696E-01      0.1371676495E+00
          0                 2           2            59    1     1       0.1243581344E-01      53    1    1         0.1256903928E-02      0.1363153807E-01
          0                 3           2            59    1     1      -0.1109031961E-02      53    1    1        -0.1131386570E-03      0.1226076264E-02
          0                 4           1            59    1     1       0.8802255741E-04      53    1    1         0.9062271156E-05      0.9857235809E-04
          0                 5           1            59    1     1      -0.6131135080E-05      53    1    1        -0.6370697285E-06      0.6976769002E-05
          0                 6           1            59    1     1       0.3681131401E-06      53    1    1         0.3860389874E-07      0.4265503518E-06

    ------------------------------------------------
       NWT REQUIRED            6 OUTER ITERATIONS 
       AND A TOTAL OF          9 INNER ITERATIONS.
    ------------------------------------------------

 NO OUTPUT CONTROL FOR STRESS PERIOD    3   TIME STEP    9
 
 SOLVING FOR HEAD 
                                                   Max.-Head-Change                         Max.-Flux-Residual
  Residual-Control   Outer-Iter.   Inner-Iter.     Column Row Layer    Maximum-Head-Change  Column Row Layer    Maximum-Flux-Residual          L2-NORM 
          0                 1           2            59    1     1      -0.1348149896E+00      59    1    1        -0.1216389076E-01      0.1351480148E+00
          0                 2           2            59    1     1       0.1335409025E-01      59    1    1         0.1215945099E-02      0.1342492716E-01
          0                 3           2            59    1     1      -0.1190910502E-02      59    1    1        -0.1094394414E-03      0.1207455442E-02
          0                 4           1            59    1     1       0.9451940888E-04      59    1    1         0.8766066642E-05      0.9711972534E-04
          0                 5           1            59    1     1      -0.6583370258E-05      59    1    1        -0.6162461972E-06      0.6880014699E-05
          0                 6           1            59    1     1       0.3952448209E-06      59    1    1         0.3734208676E-07      0.4211794041E-06

    ------------------------------------------------
       NWT REQUIRED            6 OUTER ITERATIONS 
       AND A TOTAL OF          9 INNER ITERATIONS.
    ------------------------------------------------

 NO OUTPUT CONTROL FOR STRESS PERIOD    3   TIME STEP   10
 
 SOLVING FOR HEAD 
                                                   Max.-Head-Change                         Max.-Flux-Residual
  Residual-Control   Outer-Iter.   Inner-Iter.     Column Row Layer    Maximum-Head-Change  Column Row Layer    Maximum-Flux-Residual          L2-NORM 
          0                 1           2            59    1     1      -0.1445133778E+00      59    1    1        -0.1187542285E-01      0.1337038160E+00
          0                 2           2            59    1     1       0.1431270785E-01      59    1    1         0.1187032607E-02      0.1327558430E-01
          0                 3           2            59    1     1      -0.1276378442E-02      59    1    1        -0.1068379778E-03      0.1194039174E-02
          0                 4           1            59    1     1       0.1013003961E-03      59    1    1         0.8557684062E-05      0.9606512933E-04
          0                 5           1            59    1     1      -0.7055249964E-05      59    1    1        -0.6015971348E-06      0.6808606357E-05
          0                 6           1            59    1     1       0.4235455904E-06      59    1    1         0.3645439683E-07      0.4171368655E-06

    ------------------------------------------------
       NWT REQUIRED            6 OUTER ITERATIONS 
       AND A TOTAL OF          9 INNER ITERATIONS.
    ------------------------------------------------

 NO OUTPUT CONTROL FOR STRESS PERIOD    3   TIME STEP   11
 
 SOLVING FOR HEAD 
                                                   Max.-Head-Change                         Max.-Flux-Residual
  Residual-Control   Outer-Iter.   Inner-Iter.     Column Row Layer    Maximum-Head-Change  Column Row Layer    Maximum-Flux-Residual          L2-NORM 
          0                 1           2            59    1     1      -0.1547532517E+00      59    1    1        -0.1157263954E-01      0.1326264471E+00
          0                 2           2            59    1     1       0.1532141870E-01      59    1    1         0.1156704999E-02      0.1316002492E-01
          0                 3           2            46    7     1      -0.1366136590E-02      59    1    1        -0.1041090374E-03      0.1183565822E-02
          0                 4           2            46    7     1       0.1084341409E-03      59    1    1         0.8339090920E-05      0.9530384887E-04
          0                 5           1            46    7     1      -0.7553592081E-05      59    1    1        -0.5862302750E-06      0.6767825000E-05
          0                 6           1            46    7     1       0.4534479946E-06      62    4    1        -0.3632848689E-07      0.4155745214E-06

    ------------------------------------------------
       NWT REQUIRED            6 OUTER ITERATIONS 
       AND A TOTAL OF         10 INNER ITERATIONS.
    ------------------------------------------------

 NO OUTPUT CONTROL FOR STRESS PERIOD    3   TIME STEP   12
 
 SOLVING FOR HEAD 
                                                   Max.-Head-Change                         Max.-Flux-Residual
  Residual-Control   Outer-Iter.   Inner-Iter.     Column Row Layer    Maximum-Head-Change  Column Row Layer    Maximum-Flux-Residual          L2-NORM 
          0                 1           2            59    1     1      -0.1656955331E+00      59    1    1        -0.1126640821E-01      0.1317992709E+00
          0                 2           2            59    1     1       0.1640269374E-01      59    1    1         0.1126051841E-02      0.1307206279E-01
          0                 3           2            46    7     1      -0.1462858843E-02      59    1    1        -0.1013505709E-03      0.1175646213E-02
          0                 4           2            46    7     1       0.1161110448E-03      59    1    1         0.8118134955E-05      0.9471557162E-04
          0                 5           1            46    7     1      -0.8088302048E-05      59    1    1        -0.5706973116E-06      0.6733288311E-05
          0                 6           1            46    7     1       0.4854877837E-06      62    4    1        -0.3657068604E-07      0.4140443139E-06

    ------------------------------------------------
       NWT REQUIRED            6 OUTER ITERATIONS 
       AND A TOTAL OF         10 INNER ITERATIONS.
    ------------------------------------------------

 NO OUTPUT CONTROL FOR STRESS PERIOD    3   TIME STEP   13
 
 SOLVING FOR HEAD 
                                                   Max.-Head-Change                         Max.-Flux-Residual
  Residual-Control   Outer-Iter.   Inner-Iter.     Column Row Layer    Maximum-Head-Change  Column Row Layer    Maximum-Flux-Residual          L2-NORM 
          0                 1           2            59    1     1      -0.1775193546E+00      59    1    1        -0.1096652163E-01      0.1311480506E+00
          0                 2           2            46    7     1       0.1757483019E-01      59    1    1         0.1096052347E-02      0.1300567129E-01
          0                 3           2            46    7     1      -0.1567429870E-02      59    1    1        -0.9865075280E-04      0.1169624300E-02
          0                 4           2            46    7     1       0.1244109917E-03      59    1    1         0.7901878107E-05      0.9424729331E-04
          0                 5           1            46    7     1      -0.8666396383E-05      59    1    1        -0.5554946796E-06      0.6703325204E-05
          0                 6           1            46    7     1       0.5201102885E-06      62    4    1        -0.3660967707E-07      0.4124631175E-06

    ------------------------------------------------
       NWT REQUIRED            6 OUTER ITERATIONS 
       AND A TOTAL OF         10 INNER ITERATIONS.
    ------------------------------------------------

 NO OUTPUT CONTROL FOR STRESS PERIOD    3   TIME STEP   14
 
 SOLVING FOR HEAD 
                                                   Max.-Head-Change                         Max.-Flux-Residual
  Residual-Control   Outer-Iter.   Inner-Iter.     Column Row Layer    Maximum-Head-Change  Column Row Layer    Maximum-Flux-Residual          L2-NORM 
          0                 1           2            59    1     1      -0.1904154401E+00      59    1    1        -0.1068111212E-01      0.1305793701E+00
          0                 2           2            46    7     1       0.1885339262E-01      59    1    1         0.1067517169E-02      0.1294867295E-01
          0                 3           2            46    7     1      -0.1681457038E-02      59    1    1        -0.9608256754E-04      0.1164751444E-02
          0                 4           2            46    7     1       0.1334614240E-03      59    1    1         0.7696166239E-05      0.9390019151E-04
          0                 5           1            46    7     1      -0.9296729931E-05      59    1    1        -0.5410333426E-06      0.6683925215E-05
          0                 6           1            46    7     1       0.5578320372E-06      62    4    1        -0.3692668571E-07      0.4115886511E-06

    ------------------------------------------------
       NWT REQUIRED            6 OUTER ITERATIONS 
       AND A TOTAL OF         10 INNER ITERATIONS.
    ------------------------------------------------

 NO OUTPUT CONTROL FOR STRESS PERIOD    3   TIME STEP   15
 
 SOLVING FOR HEAD 
                                                   Max.-Head-Change                         Max.-Flux-Residual
  Residual-Control   Outer-Iter.   Inner-Iter.     Column Row Layer    Maximum-Head-Change  Column Row Layer    Maximum-Flux-Residual          L2-NORM 
          0                 1           2            59    1     1      -0.2045684639E+00      59    1    1        -0.1041563595E-01      0.1300160480E+00
          0                 2           2            46    7     1       0.2025513841E-01      59    1    1         0.1040987771E-02      0.1288819063E-01
          0                 3           2            46    7     1      -0.1806437733E-02      59    1    1        -0.9369478902E-04      0.1159520428E-02
          0                 4           2            46    7     1       0.1433787903E-03      59    1    1         0.7504905795E-05      0.9355417171E-04
          0                 5           1            46    7     1      -0.9987230191E-05      59    1    1        -0.5275879165E-06      0.6668903491E-05
          0                 6           1            46    7     1       0.5990986893E-06      62    4    1        -0.3717183361E-07      0.4113038065E-06

    ------------------------------------------------
       NWT REQUIRED            6 OUTER ITERATIONS 
       AND A TOTAL OF         10 INNER ITERATIONS.
    ------------------------------------------------

 NO OUTPUT CONTROL FOR STRESS PERIOD    3   TIME STEP   16
 
 SOLVING FOR HEAD 
                                                   Max.-Head-Change                         Max.-Flux-Residual
  Residual-Control   Outer-Iter.   Inner-Iter.     Column Row Layer    Maximum-Head-Change  Column Row Layer    Maximum-Flux-Residual          L2-NORM 
          0                 1           2            59    1     1      -0.2201500011E+00      59    1    1        -0.1017268373E-01      0.1295010048E+00
          0                 2           2            46    7     1       0.2179677155E-01      59    1    1         0.1016718888E-02      0.1283494282E-01
          0                 3           2            46    7     1      -0.1943907748E-02      59    1    1        -0.9151038679E-04      0.1154762999E-02
          0                 4           2            46    7     1       0.1542885862E-03      59    1    1         0.7329936278E-05      0.9319841320E-04
          0                 5           1            46    7     1      -0.1074687340E-04      59    1    1        -0.5152877254E-06      0.6647777277E-05
          0                 6           1            46    7     1       0.6444510133E-06      62    4    1        -0.3732331066E-07      0.4101575190E-06

    ------------------------------------------------
       NWT REQUIRED            6 OUTER ITERATIONS 
       AND A TOTAL OF         10 INNER ITERATIONS.
    ------------------------------------------------

 NO OUTPUT CONTROL FOR STRESS PERIOD    3   TIME STEP   17
 
 SOLVING FOR HEAD 
                                                   Max.-Head-Change                         Max.-Flux-Residual
  Residual-Control   Outer-Iter.   Inner-Iter.     Column Row Layer    Maximum-Head-Change  Column Row Layer    Maximum-Flux-Residual          L2-NORM 
          0                 1           2            59    1     1      -0.2373171207E+00      59    1    1        -0.9952431987E-02      0.1290175195E+00
          0                 2           2            46    7     1       0.2349151572E-01      59    1    1         0.9947245496E-03      0.1278008853E-01
          0                 3           2            46    7     1      -0.2095024888E-02      59    1    1        -0.8953066012E-04      0.1149905336E-02
          0                 4           2            46    7     1       0.1662809498E-03      59    1    1         0.7171361471E-05      0.9283552037E-04
          0                 5           1            46    7     1      -0.1158177475E-04      59    1    1        -0.5041400577E-06      0.6626058628E-05
          0                 6           1            46    6     1       0.6942477441E-06      62    4    1        -0.3738717069E-07      0.4088765116E-06

    ------------------------------------------------
       NWT REQUIRED            6 OUTER ITERATIONS 
       AND A TOTAL OF         10 INNER ITERATIONS.
    ------------------------------------------------

 NO OUTPUT CONTROL FOR STRESS PERIOD    3   TIME STEP   18
 
 SOLVING FOR HEAD 
                                                   Max.-Head-Change                         Max.-Flux-Residual
  Residual-Control   Outer-Iter.   Inner-Iter.     Column Row Layer    Maximum-Head-Change  Column Row Layer    Maximum-Flux-Residual          L2-NORM 
          0                 1           2            59    1     1      -0.2561672255E+00      59    1    1        -0.9753349956E-02      0.1285183985E+00
          0                 2           2            46    7     1       0.2535322308E-01      59    1    1         0.9748436982E-03      0.1271964558E-01
          0                 3           2            46    7     1      -0.2260755633E-02      59    1    1        -0.8774172097E-04      0.1144697909E-02
          0                 4           2            46    7     1       0.1794111659E-03      59    1    1         0.7028064152E-05      0.9250799011E-04
          0                 5           1            46    7     1      -0.1249411976E-04      59    1    1        -0.4940664233E-06      0.6614476487E-05
          0                 6           1            55    5     1       0.7501461585E-06      62    4    1        -0.3687964423E-07      0.4086456757E-06

    ------------------------------------------------
       NWT REQUIRED            6 OUTER ITERATIONS 
       AND A TOTAL OF         10 INNER ITERATIONS.
    ------------------------------------------------

 NO OUTPUT CONTROL FOR STRESS PERIOD    3   TIME STEP   19
 
 SOLVING FOR HEAD 
                                                   Max.-Head-Change                         Max.-Flux-Residual
  Residual-Control   Outer-Iter.   Inner-Iter.     Column Row Layer    Maximum-Head-Change  Column Row Layer    Maximum-Flux-Residual          L2-NORM 
          0                 1           3            55    5     1      -0.2868502313E+00      59    1    1        -0.9572907439E-02      0.1280126478E+00
          0                 2           2            55    5     1       0.2835557575E-01      59    1    1         0.9568125411E-03      0.1266645843E-01
          0                 3           2            55    5     1      -0.2529257523E-02      59    1    1        -0.8611929949E-04      0.1139985323E-02
          0                 4           2            55    5     1       0.2007335225E-03      59    1    1         0.6898097045E-05      0.9222736459E-04
          0                 5           1            55    5     1      -0.1398255363E-04      59    1    1        -0.4849299806E-06      0.6608079064E-05
          0                 6           1            55    5     1       0.8397518173E-06      61    4    1        -0.3942433580E-07      0.4087233929E-06

    ------------------------------------------------
       NWT REQUIRED            6 OUTER ITERATIONS 
       AND A TOTAL OF         11 INNER ITERATIONS.
    ------------------------------------------------

 NO OUTPUT CONTROL FOR STRESS PERIOD    3   TIME STEP   20
 
 SOLVING FOR HEAD 
                                                   Max.-Head-Change                         Max.-Flux-Residual
  Residual-Control   Outer-Iter.   Inner-Iter.     Column Row Layer    Maximum-Head-Change  Column Row Layer    Maximum-Flux-Residual          L2-NORM 
          0                 1           3            55    5     1      -0.3205039962E+00      55    5    1        -0.9742623808E-02      0.1274869897E+00
          0                 2           2            55    5     1       0.3166712394E-01      55    5    1         0.9511250419E-03      0.1260619952E-01
          0                 3           2            55    5     1      -0.2824714726E-02      55    5    1        -0.8581969582E-04      0.1134921718E-02
          0                 4           2            55    5     1       0.2241760797E-03      55    5    1         0.6872414708E-05      0.9193288670E-04
          0                 5           1            55    5     1      -0.1561482045E-04      55    5    1        -0.4831350680E-06      0.6601030316E-05
          0                 6           1            55    5     1       0.9374084923E-06      61    4    1        -0.3816848704E-07      0.4086007722E-06

    ------------------------------------------------
       NWT REQUIRED            6 OUTER ITERATIONS 
       AND A TOTAL OF         11 INNER ITERATIONS.
    ------------------------------------------------

 NO OUTPUT CONTROL FOR STRESS PERIOD    3   TIME STEP   21
 
 SOLVING FOR HEAD 
                                                   Max.-Head-Change                         Max.-Flux-Residual
  Residual-Control   Outer-Iter.   Inner-Iter.     Column Row Layer    Maximum-Head-Change  Column Row Layer    Maximum-Flux-Residual          L2-NORM 
          0                 1           3            55    5     1      -0.3574561065E+00      55    5    1        -0.9899515159E-02      0.1269510722E+00
          0                 2           2            55    5     1       0.3529874196E-01      55    5    1         0.9607890565E-03      0.1255286813E-01
          0                 3           2            55    5     1      -0.3148716659E-02      55    5    1        -0.8674484518E-04      0.1130635064E-02
          0                 4           2            55    5     1       0.2498794049E-03      55    5    1         0.6946075619E-05      0.9167136682E-04
          0                 5           1            55    5     1      -0.1740424473E-04      61    4    1         0.4938880842E-06      0.6591402587E-05
          0                 6           1            55    5     1       0.1044441094E-05      61    4    1        -0.4148930799E-07      0.4076301686E-06
          0                 7           1            55    5     1      -0.5263776631E-07      61    4    1         0.2703128388E-08      0.2129954056E-07

    ------------------------------------------------
       NWT REQUIRED            7 OUTER ITERATIONS 
       AND A TOTAL OF         12 INNER ITERATIONS.
    ------------------------------------------------

 NO OUTPUT CONTROL FOR STRESS PERIOD    3   TIME STEP   22
 
 SOLVING FOR HEAD 
                                                   Max.-Head-Change                         Max.-Flux-Residual
  Residual-Control   Outer-Iter.   Inner-Iter.     Column Row Layer    Maximum-Head-Change  Column Row Layer    Maximum-Flux-Residual          L2-NORM 
          0                 1           3            55    5     1      -0.3980552419E+00      55    5    1        -0.1003267176E-01      0.1264457534E+00
          0                 2           2            55    5     1       0.3928385121E-01      55    5    1         0.9666882135E-03      0.1250034318E-01
          0                 3           2            55    5     1      -0.3504290528E-02      55    5    1        -0.8734330130E-04      0.1125813135E-02
          0                 4           2            55    5     1       0.2780858321E-03      55    5    1         0.6993470670E-05      0.9129317211E-04
          0                 5           1            50    3     1      -0.1936780567E-04      61    4    1         0.5001890671E-06      0.6567327883E-05
          0                 6           1            55    5     1       0.1161779295E-05      61    4    1        -0.4164634149E-07      0.4051676960E-06
          0                 7           1            55    5     1      -0.5848271762E-07      61    4    1         0.2699213297E-08      0.2111678310E-07

    ------------------------------------------------
       NWT REQUIRED            7 OUTER ITERATIONS 
       AND A TOTAL OF         12 INNER ITERATIONS.
    ------------------------------------------------

 NO OUTPUT CONTROL FOR STRESS PERIOD    3   TIME STEP   23
 
 SOLVING FOR HEAD 
                                                   Max.-Head-Change                         Max.-Flux-Residual
  Residual-Control   Outer-Iter.   Inner-Iter.     Column Row Layer    Maximum-Head-Change  Column Row Layer    Maximum-Flux-Residual          L2-NORM 
          0                 1           3            55    5     1      -0.4427882076E+00      55    5    1        -0.1016062958E-01      0.1259293832E+00
          0                 2           2            55    5     1       0.4365465223E-01      55    6    1         0.9730490419E-03      0.1242992506E-01
          0                 3           2            50    3     1      -0.3894533881E-02      55    5    1        -0.8774566295E-04      0.1119618626E-02
          0                 4           2            50    3     1       0.3090741318E-03      55    5    1         0.7025032979E-05      0.9095452346E-04
          0                 5           1            50    3     1      -0.2152396567E-04      60    4    1         0.5116396018E-06      0.6564929733E-05
          0                 6           1            50    3     1       0.1287404268E-05      60    4    1        -0.4329642067E-07      0.4048910117E-06
          0                 7           1            55    5     1      -0.6456266847E-07      60    4    1         0.2840650382E-08      0.2110340671E-07

    ------------------------------------------------
       NWT REQUIRED            7 OUTER ITERATIONS 
       AND A TOTAL OF         12 INNER ITERATIONS.
    ------------------------------------------------

 NO OUTPUT CONTROL FOR STRESS PERIOD    3   TIME STEP   24
 
 SOLVING FOR HEAD 
                                                   Max.-Head-Change                         Max.-Flux-Residual
  Residual-Control   Outer-Iter.   Inner-Iter.     Column Row Layer    Maximum-Head-Change  Column Row Layer    Maximum-Flux-Residual          L2-NORM 
          0                 1           3            55    5     1      -0.4920629877E+00      55    5    1        -0.1027811875E-01      0.1254439866E+00
          0                 2           2            55    5     1       0.4847124587E-01      55    6    1         0.9843350782E-03      0.1237908197E-01
          0                 3           2            50    3     1      -0.4324571469E-02      55    6    1        -0.8854763164E-04      0.1115002828E-02
          0                 4           2            50    3     1       0.3431868615E-03      55    6    1         0.7092459668E-05      0.9057979368E-04
          0                 5           1            50    3     1      -0.2389650550E-04      60    4    1         0.5178928859E-06      0.6539138175E-05
          0                 6           1            50    3     1       0.1426931526E-05      60    4    1        -0.4361269745E-07      0.4014410461E-06
          0                 7           1            55    5     1      -0.7132574307E-07      60    4    1         0.2852079461E-08      0.2082729063E-07

    ------------------------------------------------
       NWT REQUIRED            7 OUTER ITERATIONS 
       AND A TOTAL OF         12 INNER ITERATIONS.
    ------------------------------------------------

 NO OUTPUT CONTROL FOR STRESS PERIOD    3   TIME STEP   25
 
 SOLVING FOR HEAD 
                                                   Max.-Head-Change                         Max.-Flux-Residual
  Residual-Control   Outer-Iter.   Inner-Iter.     Column Row Layer    Maximum-Head-Change  Column Row Layer    Maximum-Flux-Residual          L2-NORM 
          0                 1           3            55    5     1      -0.5463126754E+00      55    5    1        -0.1038106221E-01      0.1249592000E+00
          0                 2           2            55    5     1       0.5376235323E-01      55    6    1         0.9948708820E-03      0.1232528059E-01
          0                 3           2            50    3     1      -0.4795308718E-02      55    6    1        -0.8948301741E-04      0.1110170642E-02
          0                 4           2            50    3     1       0.3804598703E-03      55    6    1         0.7167063302E-05      0.9026048063E-04
          0                 5           1            50    3     1      -0.2648497381E-04      55    6    1        -0.5037917425E-06      0.6526801721E-05
          0                 6           1            50    3     1       0.1579733360E-05      44    4    1        -0.4229559636E-07      0.3990813521E-06
          0                 7           1            50    3     1      -0.7862117793E-07      60    4    1         0.2773635543E-08      0.2064098110E-07

    ------------------------------------------------
       NWT REQUIRED            7 OUTER ITERATIONS 
       AND A TOTAL OF         12 INNER ITERATIONS.
    ------------------------------------------------

 NO OUTPUT CONTROL FOR STRESS PERIOD    3   TIME STEP   26
 
 SOLVING FOR HEAD 
                                                   Max.-Head-Change                         Max.-Flux-Residual
  Residual-Control   Outer-Iter.   Inner-Iter.     Column Row Layer    Maximum-Head-Change  Column Row Layer    Maximum-Flux-Residual          L2-NORM 
          0                 1           3            55    5     1      -0.6059793920E+00      55    5    1        -0.1047858037E-01      0.1244589652E+00
          0                 2           3            50    3     1       0.5953815397E-01      55    6    1         0.1004788532E-02      0.1225841237E-01
          0                 3           2            50    3     1      -0.5311778969E-02      55    6    1        -0.9038059334E-04      0.1104258762E-02
          0                 4           2            50    3     1       0.4213892684E-03      55    6    1         0.7238326988E-05      0.8985760249E-04
          0                 5           1            50    3     1      -0.2932385132E-04      59    4    1         0.5178905838E-06      0.6508954677E-05
          0                 6           1            50    3     1       0.1741132026E-05      59    4    1        -0.4143545951E-07      0.3951724606E-06
          0                 7           1            50    3     1      -0.8598876436E-07      44    4    1         0.2629697349E-08      0.2032463774E-07

    ------------------------------------------------
       NWT REQUIRED            7 OUTER ITERATIONS 
       AND A TOTAL OF         13 INNER ITERATIONS.
    ------------------------------------------------

 NO OUTPUT CONTROL FOR STRESS PERIOD    3   TIME STEP   27
 
 SOLVING FOR HEAD 
                                                   Max.-Head-Change                         Max.-Flux-Residual
  Residual-Control   Outer-Iter.   Inner-Iter.     Column Row Layer    Maximum-Head-Change  Column Row Layer    Maximum-Flux-Residual          L2-NORM 
          0                 1           3            55    5     1      -0.6716661851E+00      55    5    1        -0.1056993583E-01      0.1239456777E+00
          0                 2           3            50    3     1       0.6587732962E-01      55    6    1         0.1014187621E-02      0.1220848436E-01
          0                 3           2            50    3     1      -0.5874756880E-02      55    6    1        -0.9121549856E-04      0.1100015961E-02
          0                 4           2            50    3     1       0.4657632415E-03      55    6    1         0.7304269049E-05      0.8959541542E-04
          0                 5           1            50    3     1      -0.3238286985E-04      59    4    1         0.5177832545E-06      0.6501004278E-05
          0                 6           1            50    3     1       0.1911993962E-05      59    4    1        -0.4093874395E-07      0.3911826065E-06
          0                 7           1            50    3     1      -0.9353043220E-07      59    4    1         0.2565723634E-08      0.1999786781E-07

    ------------------------------------------------
       NWT REQUIRED            7 OUTER ITERATIONS 
       AND A TOTAL OF         13 INNER ITERATIONS.
    ------------------------------------------------

 NO OUTPUT CONTROL FOR STRESS PERIOD    3   TIME STEP   28
 
 SOLVING FOR HEAD 
                                                   Max.-Head-Change                         Max.-Flux-Residual
  Residual-Control   Outer-Iter.   Inner-Iter.     Column Row Layer    Maximum-Head-Change  Column Row Layer    Maximum-Flux-Residual          L2-NORM 
          0                 1           3            55    5     1      -0.7438855224E+00      55    5    1        -0.1065209566E-01      0.1234304726E+00
          0                 2           3            50    3     1       0.7273403887E-01      55    6    1         0.1023162933E-02      0.1213623820E-01
          0                 3           2            50    3     1      -0.6478791178E-02      55    6    1        -0.9201135778E-04      0.1093296301E-02
          0                 4           2            50    3     1       0.5129274013E-03      55    6    1         0.7366776191E-05      0.8909763161E-04
          0                 5           1            50    3     1      -0.3559327744E-04      55    6    1        -0.5176554918E-06      0.6474163537E-05
          0                 6           1            50    3     1       0.2080266984E-05      46    4    1        -0.4239504214E-07      0.3861112577E-06
          0                 7           1            55    5     1      -0.1003208208E-06      46    4    1         0.2782821085E-08      0.1968147574E-07

    ------------------------------------------------
       NWT REQUIRED            7 OUTER ITERATIONS 
       AND A TOTAL OF         13 INNER ITERATIONS.
    ------------------------------------------------

 NO OUTPUT CONTROL FOR STRESS PERIOD    3   TIME STEP   29
 
 SOLVING FOR HEAD 
                                                   Max.-Head-Change                         Max.-Flux-Residual
  Residual-Control   Outer-Iter.   Inner-Iter.     Column Row Layer    Maximum-Head-Change  Column Row Layer    Maximum-Flux-Residual          L2-NORM 
          0                 1           3            55    5     1      -0.8230003481E+00      55    5    1        -0.1072919499E-01      0.1228891303E+00
          0                 2           3            50    3     1       0.8029336026E-01      55    6    1         0.1031980798E-02      0.1208630890E-01
          0                 3           2            50    3     1      -0.7151202688E-02      55    6    1        -0.9278974214E-04      0.1089299501E-02
          0                 4           2            50    3     1       0.5659265898E-03      55    6    1         0.7425287241E-05      0.8887307485E-04
          0                 5           1            50    3     1      -0.3923638383E-04      58    4    1         0.5485708776E-06      0.6470333009E-05
          0                 6           1            50    3     1       0.2273010380E-05      58    4    1        -0.4614640581E-07      0.3822657001E-06
          0                 7           1            50    3     1      -0.1079187521E-06      58    4    1         0.2999913207E-08      0.1947125031E-07

    ------------------------------------------------
       NWT REQUIRED            7 OUTER ITERATIONS 
       AND A TOTAL OF         13 INNER ITERATIONS.
    ------------------------------------------------

 NO OUTPUT CONTROL FOR STRESS PERIOD    3   TIME STEP   30



 STREAM LISTING     PERIOD      3   STEP       30

 LAYER ROW COL. STREAM  RCH.   FLOW INTO    STREAM     FLOW OUT OF   OVRLND.    DIRECT     STREAM      STREAM      STREAM     STREAM  STREAMBED   FLOW TO   CHNG. UNSAT. 
                SEG.NO.  NO.   STRM. RCH.    LOSS       STRM. RCH.   RUNOFF     PRECIP       ET         HEAD        DEPTH      WIDTH  CONDCTNC.   WAT. TAB.

   1    4    1     1     1    3.8400E+00  1.4068E-03   3.8386E+00  0.000E+00  0.000E+00  0.000E+00  1.41321E+02  1.471E+00  3.573E+00  7.137E-04  1.415E-03 -8.377E-06
   1    4    2     1     2    3.8386E+00  1.4065E-03   3.8372E+00  0.000E+00  0.000E+00  0.000E+00  1.41021E+02  1.471E+00  3.572E+00  7.136E-04  1.415E-03 -8.330E-06
   1    4    3     1     3    3.8372E+00  1.4061E-03   3.8358E+00  0.000E+00  0.000E+00  0.000E+00  1.40721E+02  1.471E+00  3.572E+00  7.135E-04  1.414E-03 -8.240E-06
   1    4    4     1     4    3.8358E+00  1.4057E-03   3.8344E+00  0.000E+00  0.000E+00  0.000E+00  1.40420E+02  1.470E+00  3.572E+00  7.134E-04  1.414E-03 -8.104E-06
   1    4    5     1     5    3.8344E+00  1.4053E-03   3.8330E+00  0.000E+00  0.000E+00  0.000E+00  1.40120E+02  1.470E+00  3.571E+00  7.133E-04  1.413E-03 -7.919E-06
   1    4    6     1     6    3.8330E+00  1.4049E-03   3.8316E+00  0.000E+00  0.000E+00  0.000E+00  1.39820E+02  1.470E+00  3.571E+00  7.133E-04  1.413E-03 -7.683E-06
   1    4    7     1     7    3.8316E+00  1.4046E-03   3.8302E+00  0.000E+00  0.000E+00  0.000E+00  1.39520E+02  1.469E+00  3.571E+00  7.132E-04  1.412E-03 -7.389E-06
   1    4    8     1     8    3.8302E+00  1.4042E-03   3.8288E+00  0.000E+00  0.000E+00  0.000E+00  1.39219E+02  1.469E+00  3.570E+00  7.131E-04  1.411E-03 -7.025E-06
   1    4    9     1     9    3.8288E+00  1.4038E-03   3.8274E+00  0.000E+00  0.000E+00  0.000E+00  1.38919E+02  1.469E+00  3.570E+00  7.130E-04  1.410E-03 -6.581E-06
   1    4   10     1    10    3.8274E+00  1.4034E-03   3.8259E+00  0.000E+00  0.000E+00  0.000E+00  1.38619E+02  1.469E+00  3.570E+00  7.129E-04  1.409E-03 -6.036E-06
   1    4   11     1    11    3.8259E+00  1.4030E-03   3.8245E+00  0.000E+00  0.000E+00  0.000E+00  1.38318E+02  1.468E+00  3.569E+00  7.128E-04  1.408E-03 -5.373E-06
   1    4   12     1    12    3.8245E+00  1.4027E-03   3.8231E+00  0.000E+00  0.000E+00  0.000E+00  1.38018E+02  1.468E+00  3.569E+00  7.127E-04  1.407E-03 -4.563E-06
   1    4   13     1    13    3.8231E+00  1.4023E-03   3.8217E+00  0.000E+00  0.000E+00  0.000E+00  1.37718E+02  1.468E+00  3.569E+00  7.126E-04  1.406E-03 -3.580E-06
   1    4   14     1    14    3.8217E+00  1.4019E-03   3.8203E+00  0.000E+00  0.000E+00  0.000E+00  1.37418E+02  1.468E+00  3.568E+00  7.125E-04  1.404E-03 -2.389E-06
   1    4   15     1    15    3.8203E+00  1.4015E-03   3.8189E+00  0.000E+00  0.000E+00  0.000E+00  1.37117E+02  1.467E+00  3.568E+00  7.124E-04  1.402E-03 -9.508E-07
   1    4   16     1    16    3.8189E+00  1.4012E-03   3.8175E+00  0.000E+00  0.000E+00  0.000E+00  1.36817E+02  1.467E+00  3.568E+00  7.123E-04  1.400E-03  7.765E-07
   1    4   17     1    17    3.8175E+00  1.4008E-03   3.8161E+00  0.000E+00  0.000E+00  0.000E+00  1.36517E+02  1.467E+00  3.567E+00  7.122E-04  1.398E-03  2.839E-06
   1    4   18     1    18    3.8161E+00  1.4004E-03   3.8147E+00  0.000E+00  0.000E+00  0.000E+00  1.36216E+02  1.466E+00  3.567E+00  7.122E-04  1.395E-03  5.290E-06
   1    4   19     1    19    3.8147E+00  1.4000E-03   3.8133E+00  0.000E+00  0.000E+00  0.000E+00  1.35916E+02  1.466E+00  3.567E+00  7.121E-04  1.392E-03  8.185E-06
   1    4   20     1    20    3.8133E+00  1.3996E-03   3.8119E+00  0.000E+00  0.000E+00  0.000E+00  1.35616E+02  1.466E+00  3.566E+00  7.120E-04  1.388E-03  1.158E-05
   1    4   21     1    21    3.8119E+00  1.3993E-03   3.8105E+00  0.000E+00  0.000E+00  0.000E+00  1.35316E+02  1.466E+00  3.566E+00  7.119E-04  1.384E-03  1.555E-05
   1    4   22     1    22    3.8105E+00  1.3989E-03   3.8091E+00  0.000E+00  0.000E+00  0.000E+00  1.35015E+02  1.465E+00  3.566E+00  7.118E-04  1.379E-03  2.014E-05
   1    4   23     1    23    3.8091E+00  1.3985E-03   3.8077E+00  0.000E+00  0.000E+00  0.000E+00  1.34715E+02  1.465E+00  3.565E+00  7.117E-04  1.373E-03  2.543E-05
   1    4   24     1    24    3.8077E+00  1.3981E-03   3.8063E+00  0.000E+00  0.000E+00  0.000E+00  1.34415E+02  1.465E+00  3.565E+00  7.116E-04  1.367E-03  3.148E-05
   1    4   25     1    25    3.8063E+00  1.3978E-03   3.8049E+00  0.000E+00  0.000E+00  0.000E+00  1.34114E+02  1.464E+00  3.565E+00  7.115E-04  1.359E-03  3.835E-05
   1    4   26     1    26    3.8049E+00  1.3974E-03   3.8035E+00  0.000E+00  0.000E+00  0.000E+00  1.33814E+02  1.464E+00  3.564E+00  7.114E-04  1.351E-03  4.610E-05
   1    4   27     1    27    3.8035E+00  1.3970E-03   3.8021E+00  0.000E+00  0.000E+00  0.000E+00  1.33514E+02  1.464E+00  3.564E+00  7.113E-04  1.342E-03  5.477E-05
   1    4   28     1    28    3.8021E+00  1.3966E-03   3.8008E+00  0.000E+00  0.000E+00  0.000E+00  1.33214E+02  1.464E+00  3.564E+00  7.112E-04  1.332E-03  6.439E-05
   1    4   29     1    29    3.8008E+00  1.3962E-03   3.7994E+00  0.000E+00  0.000E+00  0.000E+00  1.32913E+02  1.463E+00  3.563E+00  7.112E-04  1.321E-03  7.500E-05
   1    4   30     1    30    3.7994E+00  1.3959E-03   3.7980E+00  0.000E+00  0.000E+00  0.000E+00  1.32613E+02  1.463E+00  3.563E+00  7.111E-04  1.309E-03  8.658E-05
   1    4   31     1    31    3.7980E+00  1.3955E-03   3.7966E+00  0.000E+00  0.000E+00  0.000E+00  1.32313E+02  1.463E+00  3.563E+00  7.110E-04  1.296E-03  9.913E-05
   1    4   32     1    32    3.7966E+00  1.3951E-03   3.7952E+00  0.000E+00  0.000E+00  0.000E+00  1.32013E+02  1.463E+00  3.562E+00  7.109E-04  1.283E-03  1.126E-04
   1    4   33     1    33    3.7952E+00  1.3947E-03   3.7938E+00  0.000E+00  0.000E+00  0.000E+00  1.31712E+02  1.462E+00  3.562E+00  7.108E-04  1.268E-03  1.269E-04
   1    4   34     1    34    3.7938E+00  1.3944E-03   3.7924E+00  0.000E+00  0.000E+00  0.000E+00  1.31412E+02  1.462E+00  3.562E+00  7.107E-04  1.252E-03  1.419E-04
   1    4   35     1    35    3.7924E+00  1.3940E-03   3.7910E+00  0.000E+00  0.000E+00  0.000E+00  1.31112E+02  1.462E+00  3.561E+00  7.106E-04  1.236E-03  1.576E-04
   1    4   36     1    36    3.7910E+00  1.3936E-03   3.7896E+00  0.000E+00  0.000E+00  0.000E+00  1.30811E+02  1.461E+00  3.561E+00  7.105E-04  1.220E-03  1.736E-04
   1    4   37     1    37    3.7896E+00  1.3932E-03   3.7882E+00  0.000E+00  0.000E+00  0.000E+00  1.30511E+02  1.461E+00  3.561E+00  7.104E-04  1.203E-03  1.900E-04
   1    4   38     1    38    3.7882E+00  1.3928E-03   3.7868E+00  0.000E+00  0.000E+00  0.000E+00  1.30211E+02  1.461E+00  3.560E+00  7.103E-04  1.187E-03  2.063E-04
   1    4   39     1    39    3.7868E+00  1.3925E-03   3.7854E+00  0.000E+00  0.000E+00  0.000E+00  1.29911E+02  1.461E+00  3.560E+00  7.102E-04  1.170E-03  2.225E-04
   1    4   40     1    40    3.7854E+00  1.3921E-03   3.7840E+00  0.000E+00  0.000E+00  0.000E+00  1.29610E+02  1.460E+00  3.560E+00  7.102E-04  1.154E-03  2.382E-04
   1    4   41     1    41    3.7840E+00  1.3917E-03   3.7826E+00  0.000E+00  0.000E+00  0.000E+00  1.29310E+02  1.460E+00  3.559E+00  7.101E-04  1.138E-03  2.534E-04
   1    4   42     1    42    3.7826E+00  1.3913E-03   3.7812E+00  0.000E+00  0.000E+00  0.000E+00  1.29010E+02  1.460E+00  3.559E+00  7.100E-04  1.124E-03  2.678E-04
   1    4   43     1    43    3.7812E+00  1.3910E-03   3.7798E+00  0.000E+00  0.000E+00  0.000E+00  1.28709E+02  1.459E+00  3.559E+00  7.099E-04  1.110E-03  2.814E-04
   1    4   44     1    44    3.7798E+00  1.3906E-03   3.7785E+00  0.000E+00  0.000E+00  0.000E+00  1.28409E+02  1.459E+00  3.558E+00  7.098E-04  1.096E-03  2.942E-04
   1    4   45     1    45    3.7785E+00  1.3902E-03   3.7771E+00  0.000E+00  0.000E+00  0.000E+00  1.28109E+02  1.459E+00  3.558E+00  7.097E-04  1.084E-03  3.063E-04
   1    4   46     1    46    3.7771E+00  1.3898E-03   3.7757E+00  0.000E+00  0.000E+00  0.000E+00  1.27809E+02  1.459E+00  3.558E+00  7.096E-04  1.073E-03  3.168E-04
   1    4   47     1    47    3.7757E+00  1.3895E-03   3.7743E+00  0.000E+00  0.000E+00  0.000E+00  1.27508E+02  1.458E+00  3.557E+00  7.095E-04  0.000E+00  1.389E-03
   1    4   48     1    48    3.7743E+00  1.3891E-03   3.7729E+00  0.000E+00  0.000E+00  0.000E+00  1.27208E+02  1.458E+00  3.557E+00  7.094E-04  0.000E+00  1.389E-03
   1    4   49     1    49    3.7729E+00  1.3887E-03   3.7715E+00  0.000E+00  0.000E+00  0.000E+00  1.26908E+02  1.458E+00  3.557E+00  7.093E-04  0.000E+00  1.389E-03
   1    4   50     1    50    3.7715E+00  1.3883E-03   3.7701E+00  0.000E+00  0.000E+00  0.000E+00  1.26607E+02  1.457E+00  3.556E+00  7.092E-04  0.000E+00  1.388E-03
   1    4   51     1    51    3.7701E+00  1.3880E-03   3.7687E+00  0.000E+00  0.000E+00  0.000E+00  1.26307E+02  1.457E+00  3.556E+00  7.092E-04  0.000E+00  1.388E-03
   1    4   52     1    52    3.7687E+00  1.3876E-03   3.7673E+00  0.000E+00  0.000E+00  0.000E+00  1.26007E+02  1.457E+00  3.556E+00  7.091E-04  0.000E+00  1.388E-03
   1    4   53     1    53    3.7673E+00  1.3872E-03   3.7660E+00  0.000E+00  0.000E+00  0.000E+00  1.25707E+02  1.457E+00  3.555E+00  7.090E-04  0.000E+00  1.387E-03
   1    4   54     1    54    3.7660E+00  1.3868E-03   3.7646E+00  0.000E+00  0.000E+00  0.000E+00  1.25406E+02  1.456E+00  3.555E+00  7.089E-04  0.000E+00  1.387E-03
   1    4   55     1    55    3.7646E+00  1.3865E-03   3.7632E+00  0.000E+00  0.000E+00  0.000E+00  1.25106E+02  1.456E+00  3.555E+00  7.088E-04  0.000E+00  1.386E-03
   1    4   56     1    56    3.7632E+00  1.3861E-03   3.7618E+00  0.000E+00  0.000E+00  0.000E+00  1.24806E+02  1.456E+00  3.554E+00  7.087E-04  0.000E+00  1.386E-03
   1    4   57     1    57    3.7618E+00  1.3857E-03   3.7604E+00  0.000E+00  0.000E+00  0.000E+00  1.24506E+02  1.456E+00  3.554E+00  7.086E-04  0.000E+00  1.386E-03
   1    4   58     1    58    3.7604E+00  1.3853E-03   3.7590E+00  0.000E+00  0.000E+00  0.000E+00  1.24205E+02  1.455E+00  3.554E+00  7.085E-04  9.847E-04  4.006E-04
   1    4   59     1    59    3.7590E+00  1.3850E-03   3.7576E+00  0.000E+00  0.000E+00  0.000E+00  1.23905E+02  1.455E+00  3.553E+00  7.084E-04  1.062E-03  3.228E-04
   1    4   60     1    60    3.7576E+00  1.3846E-03   3.7563E+00  0.000E+00  0.000E+00  0.000E+00  1.23605E+02  1.455E+00  3.553E+00  7.083E-04  1.073E-03  3.116E-04
   1    4   61     1    61    3.7563E+00  1.3842E-03   3.7549E+00  0.000E+00  0.000E+00  0.000E+00  1.23304E+02  1.454E+00  3.553E+00  7.082E-04  1.084E-03  3.004E-04
   1    4   62     1    62    3.7549E+00  1.3838E-03   3.7535E+00  0.000E+00  0.000E+00  0.000E+00  1.23004E+02  1.454E+00  3.552E+00  7.082E-04  1.095E-03  2.888E-04
   1    4   63     1    63    3.7535E+00  1.3835E-03   3.7521E+00  0.000E+00  0.000E+00  0.000E+00  1.22704E+02  1.454E+00  3.552E+00  7.081E-04  1.107E-03  2.767E-04
   1    4   64     1    64    3.7521E+00  1.3831E-03   3.7507E+00  0.000E+00  0.000E+00  0.000E+00  1.22404E+02  1.454E+00  3.552E+00  7.080E-04  1.119E-03  2.640E-04
   1    4   65     1    65    3.7507E+00  1.3827E-03   3.7493E+00  0.000E+00  0.000E+00  0.000E+00  1.22103E+02  1.453E+00  3.551E+00  7.079E-04  1.132E-03  2.508E-04
   1    4   66     1    66    3.7493E+00  1.3823E-03   3.7480E+00  0.000E+00  0.000E+00  0.000E+00  1.21803E+02  1.453E+00  3.551E+00  7.078E-04  1.145E-03  2.373E-04
   1    4   67     1    67    3.7480E+00  1.3820E-03   3.7466E+00  0.000E+00  0.000E+00  0.000E+00  1.21503E+02  1.453E+00  3.551E+00  7.077E-04  1.158E-03  2.237E-04
   1    4   68     1    68    3.7466E+00  1.3816E-03   3.7452E+00  0.000E+00  0.000E+00  0.000E+00  1.21202E+02  1.452E+00  3.550E+00  7.076E-04  1.171E-03  2.103E-04
   1    4   69     1    69    3.7452E+00  1.3812E-03   3.7438E+00  0.000E+00  0.000E+00  0.000E+00  1.20902E+02  1.452E+00  3.550E+00  7.075E-04  1.184E-03  1.972E-04
   1    4   70     1    70    3.7438E+00  1.3808E-03   3.7424E+00  0.000E+00  0.000E+00  0.000E+00  1.20602E+02  1.452E+00  3.550E+00  7.074E-04  1.196E-03  1.847E-04
   1    4   71     1    71    3.7424E+00  1.3805E-03   3.7411E+00  0.000E+00  0.000E+00  0.000E+00  1.20302E+02  1.452E+00  3.549E+00  7.073E-04  1.208E-03  1.730E-04
   1    4   72     1    72    3.7411E+00  1.3801E-03   3.7397E+00  0.000E+00  0.000E+00  0.000E+00  1.20001E+02  1.451E+00  3.549E+00  7.072E-04  1.218E-03  1.622E-04
   1    4   73     1    73    3.7397E+00  1.3797E-03   3.7383E+00  0.000E+00  0.000E+00  0.000E+00  1.19701E+02  1.451E+00  3.549E+00  7.072E-04  1.227E-03  1.525E-04
   1    4   74     1    74    3.7383E+00  1.3793E-03   3.7369E+00  0.000E+00  0.000E+00  0.000E+00  1.19401E+02  1.451E+00  3.548E+00  7.071E-04  1.235E-03  1.440E-04
   1    4   75     1    75    3.7369E+00  1.3790E-03   3.7355E+00  0.000E+00  0.000E+00  0.000E+00  1.19101E+02  1.451E+00  3.548E+00  7.070E-04  1.242E-03  1.367E-04
   1    4   76     1    76    3.7355E+00  1.3786E-03   3.7342E+00  0.000E+00  0.000E+00  0.000E+00  1.18800E+02  1.450E+00  3.548E+00  7.069E-04  1.248E-03  1.307E-04
   1    4   77     1    77    3.7342E+00  1.3782E-03   3.7328E+00  0.000E+00  0.000E+00  0.000E+00  1.18500E+02  1.450E+00  3.547E+00  7.068E-04  1.252E-03  1.258E-04
   1    4   78     1    78    3.7328E+00  1.3778E-03   3.7314E+00  0.000E+00  0.000E+00  0.000E+00  1.18200E+02  1.450E+00  3.547E+00  7.067E-04  1.256E-03  1.221E-04
   1    4   79     1    79    3.7314E+00  1.3775E-03   3.7300E+00  0.000E+00  0.000E+00  0.000E+00  1.17899E+02  1.449E+00  3.547E+00  7.066E-04  1.258E-03  1.194E-04
   1    4   80     1    80    3.7300E+00  1.3771E-03   3.7286E+00  0.000E+00  0.000E+00  0.000E+00  1.17599E+02  1.449E+00  3.546E+00  7.065E-04  1.259E-03  1.176E-04
   1    4   81     1    81    3.7286E+00  1.3767E-03   3.7273E+00  0.000E+00  0.000E+00  0.000E+00  1.17299E+02  1.449E+00  3.546E+00  7.064E-04  1.260E-03  1.166E-04
   1    4   82     1    82    3.7273E+00  1.3764E-03   3.7259E+00  0.000E+00  0.000E+00  0.000E+00  1.16999E+02  1.449E+00  3.546E+00  7.063E-04  1.260E-03  1.162E-04
   1    4   83     1    83    3.7259E+00  1.3760E-03   3.7245E+00  0.000E+00  0.000E+00  0.000E+00  1.16698E+02  1.448E+00  3.545E+00  7.062E-04  1.260E-03  1.162E-04
   1    4   84     1    84    3.7245E+00  1.3756E-03   3.7231E+00  0.000E+00  0.000E+00  0.000E+00  1.16398E+02  1.448E+00  3.545E+00  7.062E-04  1.259E-03  1.165E-04
   1    4   85     1    85    3.7231E+00  1.3752E-03   3.7218E+00  0.000E+00  0.000E+00  0.000E+00  1.16098E+02  1.448E+00  3.545E+00  7.061E-04  1.259E-03  1.167E-04
   1    4   86     1    86    3.7218E+00  1.3749E-03   3.7204E+00  0.000E+00  0.000E+00  0.000E+00  1.15797E+02  1.447E+00  3.544E+00  7.060E-04  1.258E-03  1.166E-04
   1    4   87     1    87    3.7204E+00  1.3745E-03   3.7190E+00  0.000E+00  0.000E+00  0.000E+00  1.15497E+02  1.447E+00  3.544E+00  7.059E-04  1.258E-03  1.162E-04
   1    4   88     1    88    3.7190E+00  1.3741E-03   3.7176E+00  0.000E+00  0.000E+00  0.000E+00  1.15197E+02  1.447E+00  3.544E+00  7.058E-04  1.259E-03  1.151E-04
   1    4   89     1    89    3.7176E+00  1.3737E-03   3.7163E+00  0.000E+00  0.000E+00  0.000E+00  1.14897E+02  1.447E+00  3.543E+00  7.057E-04  1.261E-03  1.132E-04
   1    4   90     1    90    3.7163E+00  1.3734E-03   3.7149E+00  0.000E+00  0.000E+00  0.000E+00  1.14596E+02  1.446E+00  3.543E+00  7.056E-04  1.263E-03  1.102E-04
   1    4   91     1    91    3.7149E+00  1.3730E-03   3.7135E+00  0.000E+00  0.000E+00  0.000E+00  1.14296E+02  1.446E+00  3.543E+00  7.055E-04  1.267E-03  1.060E-04
   1    4   92     1    92    3.7135E+00  1.3726E-03   3.7121E+00  0.000E+00  0.000E+00  0.000E+00  1.13996E+02  1.446E+00  3.542E+00  7.054E-04  1.272E-03  1.005E-04
   1    4   93     1    93    3.7121E+00  1.3723E-03   3.7108E+00  0.000E+00  0.000E+00  0.000E+00  1.13696E+02  1.446E+00  3.542E+00  7.053E-04  1.279E-03  9.349E-05
   1    4   94     1    94    3.7108E+00  1.3719E-03   3.7094E+00  0.000E+00  0.000E+00  0.000E+00  1.13395E+02  1.445E+00  3.542E+00  7.052E-04  1.287E-03  8.491E-05
   1    4   95     1    95    3.7094E+00  1.3715E-03   3.7080E+00  0.000E+00  0.000E+00  0.000E+00  1.13095E+02  1.445E+00  3.541E+00  7.052E-04  1.297E-03  7.469E-05
   1    4   96     1    96    3.7080E+00  1.3711E-03   3.7067E+00  0.000E+00  0.000E+00  0.000E+00  1.12795E+02  1.445E+00  3.541E+00  7.051E-04  1.308E-03  6.283E-05
   1    4   97     1    97    3.7067E+00  1.3708E-03   3.7053E+00  0.000E+00  0.000E+00  0.000E+00  1.12494E+02  1.444E+00  3.541E+00  7.050E-04  1.321E-03  4.934E-05
   1    4   98     1    98    3.7053E+00  1.3704E-03   3.7039E+00  0.000E+00  0.000E+00  0.000E+00  1.12194E+02  1.444E+00  3.540E+00  7.049E-04  1.336E-03  3.431E-05
   1    4   99     1    99    3.7039E+00  1.3700E-03   3.7026E+00  0.000E+00  0.000E+00  0.000E+00  1.11894E+02  1.444E+00  3.540E+00  7.048E-04  1.352E-03  1.785E-05
   1    4  100     1   100    3.7026E+00  1.3697E-03   3.7012E+00  0.000E+00  0.000E+00  0.000E+00  1.11594E+02  1.444E+00  3.540E+00  7.047E-04  0.000E+00  0.000E+00



1
  VOLUMETRIC BUDGET FOR UNSATURATED ZONE BENEATH STREAMS AT END OF TIME STEP    30 STRESS PERIOD   3
  ------------------------------------------------------------------------------------------------

    CUMULATIVE VOLUMES             L**3    RATES FOR THIS TIME STEP         L**3/T
    ------------------                     ------------------------


          STREAM LOSS =       715423.6875            STREAM LOSS =            0.1388
    CHANGE IN STORAGE =       438696.7188      CHANGE IN STORAGE =        2.5676E-02
       RECHARGE TO GW =       276727.3125         RECHARGE TO GW =            0.1131

             TOTAL IN =       715423.6875               TOTAL IN =            0.1388

            TOTAL OUT =       715424.0000              TOTAL OUT =            0.1388

             IN - OUT =           -0.3125               IN - OUT =       -1.4901E-08

  PERCENT DISCREPANCY =           -0.00      PERCENT DISCREPANCY =            -0.00



1
  VOLUMETRIC BUDGET FOR ENTIRE MODEL AT END OF TIME STEP   30, STRESS PERIOD   3
  ------------------------------------------------------------------------------

     CUMULATIVE VOLUMES      L**3       RATES FOR THIS TIME STEP      L**3/T
     ------------------                 ------------------------

           IN:                                      IN:
           ---                                      ---
             STORAGE     =    26409886.0000               STORAGE     =           2.4496
       CONSTANT HEAD     =           0.0000         CONSTANT HEAD     =           0.0000
               WELLS     =           0.0000                 WELLS     =           0.0000
     HEAD DEP BOUNDS     =           0.0000       HEAD DEP BOUNDS     =           0.0000
      STREAM LEAKAGE     =      276727.2812        STREAM LEAKAGE     =           0.1131

                TOTAL IN =    26686614.0000                  TOTAL IN =           2.5627

          OUT:                                     OUT:
          ----                                     ----
             STORAGE     =       56556.4570               STORAGE     =       1.5513E-02
       CONSTANT HEAD     =           0.0000         CONSTANT HEAD     =           0.0000
               WELLS     =    20424958.0000                 WELLS     =           2.1400
     HEAD DEP BOUNDS     =     6205101.5000       HEAD DEP BOUNDS     =           0.4072
      STREAM LEAKAGE     =           0.0000        STREAM LEAKAGE     =           0.0000

               TOTAL OUT =    26686616.0000                 TOTAL OUT =           2.5627

                IN - OUT =          -2.0000                  IN - OUT =       2.3842E-07

     PERCENT DISCREPANCY =          -0.00         PERCENT DISCREPANCY =           0.00






         TIME SUMMARY AT END OF TIME STEP   30 IN STRESS PERIOD    3
                    SECONDS     MINUTES      HOURS       DAYS        YEARS
                    -----------------------------------------------------------
   TIME STEP LENGTH 2.49961E+05  4166.0      69.434      2.8931     7.92080E-03
 STRESS PERIOD TIME 2.59200E+06  43200.      720.00      30.000     8.21355E-02
         TOTAL TIME 7.77600E+06 1.29600E+05  2160.0      90.000     0.24641    
1
1
                            STRESS PERIOD NO.    4, LENGTH =   2592000.    
                            -----------------------------------------------

                              NUMBER OF TIME STEPS =    30

                               MULTIPLIER FOR DELT =     1.100

                            INITIAL TIME STEP SIZE =   15757.40    

 REUSING NON-PARAMETER WELLS FROM LAST STRESS PERIOD

      1 WELL 

 REUSING NON-PARAMETER GHB CELLS FROM LAST STRESS PERIOD

      7 GHB CELLS



 CLASSIFICATION & COUNT OF STREAM SEGMENTS BASED ON SOURCE OF INFLOW:

                HEADWATER     DIVERSION     RECEIVES TRIBUTARY FLOW
                ---------     ---------     -----------------------
                     1              0               0



                    INPUT DATA FOR EACH STREAM SEGMENT
 ---------------------------------------------------------------------------------------------

 SEGMENT    SEG.     INFLOW   OVERLAND   STREAM    STREAM   ICALC  OUTFLOW  DIVERSION PRIORITY
    NO.    LENGTH     RATE     RUNOFF      ET       PPT.    METH.  TO SEG.  FROM SEG.    NO.

      1  2.000E+04 1.785E+01 0.000E+00 0.000E+00 0.000E+00    2        0        0        0


         STREAMBED PROPERTIES AND STREAM DIMENSIONS

 SEGMENT     BED HYD. COND.      BED THICKNESS     ELEV.-TOP OF BED     WIDTH OF STREAM     DEPTH OF STREAM    STREAM ROUGHNESS
    No.     UPPER     LOWER     UPPER     LOWER     UPPER     LOWER     UPPER     LOWER     UPPER     LOWER   CHANNEL      BANK

     1  3.500E-07 3.500E-07                                                                                 3.000E-02 4.000E-02

  EIGHT POINT CROSS-SECTION DATA FOR SEGMENTS WITH ICALC = 2
    X VALUES X VALUES START FROM LEFT SIDE LOOKING DOWNSTREAM

     SEGMENT NO.        X1        X2        X3        X4        X5        X6        X7        X8
            1      0.000E+00 2.000E+00 4.000E+00 6.000E+00 8.000E+00 1.000E+01 1.200E+01 1.400E+01

    Z VALUES ARE RELATIVE TO STREAMBED ELEVATION

     SEGMENT NO.          Z1        Z2        Z3        Z4        Z5        Z6        Z7        Z8
            1      6.000E+00 4.500E+00 3.500E+00 0.000E+00 3.000E-01 3.500E+00 4.500E+00 6.000E+00



 
 SOLVING FOR HEAD 
                                                   Max.-Head-Change                         Max.-Flux-Residual
  Residual-Control   Outer-Iter.   Inner-Iter.     Column Row Layer    Maximum-Head-Change  Column Row Layer    Maximum-Flux-Residual          L2-NORM 
          0                 1           2            50    3     1       0.1093919100E+01      50    3    1         0.4392239461E+00      0.6328961604E+00
          0                 2           2            50    3     1      -0.1096692281E+00      50    3    1        -0.4478019628E-01      0.6447088624E-01
          0                 3           2            50    3     1       0.9767946746E-02      50    3    1         0.4021780727E-02      0.5790177009E-02
          0                 4           2            50    3     1      -0.7754147530E-03      50    3    1        -0.3222118163E-03      0.4640136979E-03
          0                 5           1            50    3     1       0.5401607724E-04      50    3    1         0.2265075525E-04      0.3263191143E-04
          0                 6           1            50    3     1      -0.3243509051E-05      50    3    1        -0.1372544384E-05      0.1978155305E-05
          0                 7           1            50    3     1       0.1638897363E-06      50    3    1         0.6998592195E-07      0.1009002246E-06

    ------------------------------------------------
       NWT REQUIRED            7 OUTER ITERATIONS 
       AND A TOTAL OF         11 INNER ITERATIONS.
    ------------------------------------------------

 NO OUTPUT CONTROL FOR STRESS PERIOD    4   TIME STEP    1
 
 SOLVING FOR HEAD 
                                                   Max.-Head-Change                         Max.-Flux-Residual
  Residual-Control   Outer-Iter.   Inner-Iter.     Column Row Layer    Maximum-Head-Change  Column Row Layer    Maximum-Flux-Residual          L2-NORM 
          0                 1           2            50    3     1       0.6792896982E+00      50    3    1         0.2269430607E+00      0.3508268277E+00
          0                 2           2            50    3     1      -0.6807060440E-01      50    3    1        -0.2315819906E-01      0.3552847984E-01
          0                 3           2            50    3     1       0.6063037838E-02      50    3    1         0.2079592950E-02      0.3192104709E-02
          0                 4           2            50    3     1      -0.4813043990E-03      50    3    1        -0.1666123029E-03      0.2559687747E-03
          0                 5           1            50    3     1       0.3352810088E-04      50    3    1         0.1171245090E-04      0.1801925559E-04
          0                 6           1            50    3     1      -0.2013260681E-05      50    3    1        -0.7097252865E-06      0.1093489341E-05
          0                 7           1            50    3     1       0.1017268590E-06      50    3    1         0.3618872135E-07      0.5582804179E-07

    ------------------------------------------------
       NWT REQUIRED            7 OUTER ITERATIONS 
       AND A TOTAL OF         11 INNER ITERATIONS.
    ------------------------------------------------

 NO OUTPUT CONTROL FOR STRESS PERIOD    4   TIME STEP    2
 
 SOLVING FOR HEAD 
                                                   Max.-Head-Change                         Max.-Flux-Residual
  Residual-Control   Outer-Iter.   Inner-Iter.     Column Row Layer    Maximum-Head-Change  Column Row Layer    Maximum-Flux-Residual          L2-NORM 
          0                 1           2            50    3     1       0.4577989524E+00      50    3    1         0.1281074723E+00      0.2349022191E+00
          0                 2           2            50    3     1      -0.4574679890E-01      50    3    1        -0.1301739585E-01      0.2356246146E-01
          0                 3           2            50    3     1       0.4075947123E-02      50    3    1         0.1169491528E-02      0.2118491374E-02
          0                 4           2            50    3     1      -0.3235522646E-03      50    3    1        -0.9369275203E-04      0.1700869021E-03
          0                 5           1            50    3     1       0.2253901123E-04      50    3    1         0.6586405839E-05      0.1199764343E-04
          0                 6           1            50    3     1      -0.1353391277E-05      50    3    1        -0.3991053967E-06      0.7296566491E-06
          0                 7           1            50    3     1       0.6838427490E-07      50    3    1         0.2035012514E-07      0.3732676741E-07

    ------------------------------------------------
       NWT REQUIRED            7 OUTER ITERATIONS 
       AND A TOTAL OF         11 INNER ITERATIONS.
    ------------------------------------------------

 NO OUTPUT CONTROL FOR STRESS PERIOD    4   TIME STEP    3
 
 SOLVING FOR HEAD 
                                                   Max.-Head-Change                         Max.-Flux-Residual
  Residual-Control   Outer-Iter.   Inner-Iter.     Column Row Layer    Maximum-Head-Change  Column Row Layer    Maximum-Flux-Residual          L2-NORM 
          0                 1           2            50    3     1       0.3307379636E+00      50    3    1         0.7851873353E-01      0.1803065961E+00
          0                 2           2            50    3     1      -0.3297127694E-01      50    3    1        -0.7945053087E-02      0.1796128719E-01
          0                 3           2            50    3     1       0.2938471735E-02      50    3    1         0.7141218227E-03      0.1615445047E-02
          0                 4           2            50    3     1      -0.2332523091E-03      50    3    1        -0.5720857721E-04      0.1299279032E-03
          0                 5           1            50    3     1       0.1624865692E-04      50    3    1         0.4021660798E-05      0.9190929435E-05
          0                 6           1            50    3     1      -0.9756646544E-06      50    3    1        -0.2436894917E-06      0.5607255996E-06

    ------------------------------------------------
       NWT REQUIRED            6 OUTER ITERATIONS 
       AND A TOTAL OF         10 INNER ITERATIONS.
    ------------------------------------------------

 NO OUTPUT CONTROL FOR STRESS PERIOD    4   TIME STEP    4
 
 SOLVING FOR HEAD 
                                                   Max.-Head-Change                         Max.-Flux-Residual
  Residual-Control   Outer-Iter.   Inner-Iter.     Column Row Layer    Maximum-Head-Change  Column Row Layer    Maximum-Flux-Residual          L2-NORM 
          0                 1           2            50    3     1       0.2525702403E+00      50    3    1         0.5157324775E-01      0.1505727150E+00
          0                 2           2            50    3     1      -0.2513770537E-01      50    3    1        -0.5202101554E-02      0.1492765920E-01
          0                 3           2            50    3     1       0.2240742092E-02      50    3    1         0.4677424322E-03      0.1342735800E-02
          0                 4           2            50    3     1      -0.1778643772E-03      50    3    1        -0.3746972537E-04      0.1082160624E-03
          0                 5           1            50    3     1       0.1239028340E-04      50    3    1         0.2634062982E-05      0.7680473320E-05
          0                 6           1            50    3     1      -0.7439680575E-06      50    3    1        -0.1596034078E-06      0.4703471152E-06

    ------------------------------------------------
       NWT REQUIRED            6 OUTER ITERATIONS 
       AND A TOTAL OF         10 INNER ITERATIONS.
    ------------------------------------------------

 NO OUTPUT CONTROL FOR STRESS PERIOD    4   TIME STEP    5
 
 SOLVING FOR HEAD 
                                                   Max.-Head-Change                         Max.-Flux-Residual
  Residual-Control   Outer-Iter.   Inner-Iter.     Column Row Layer    Maximum-Head-Change  Column Row Layer    Maximum-Flux-Residual          L2-NORM 
          0                 1           2            50    3     1       0.2014464896E+00      50    3    1         0.3581481751E-01      0.1322989592E+00
          0                 2           2            50    3     1      -0.2002768935E-01      50    3    1        -0.3604731195E-02      0.1306685929E-01
          0                 3           2            50    3     1       0.1785472444E-02      50    3    1         0.3241946876E-03      0.1175402084E-02
          0                 4           2            50    3     1      -0.1417248317E-03      50    3    1        -0.2596983707E-04      0.9493515218E-04
          0                 5           1            50    3     1       0.9872764273E-05      50    3    1         0.1825642773E-05      0.6761839632E-05
          0                 6           1            50    3     1      -0.5927820768E-06      50    3    1        -0.1106126266E-06      0.4158061464E-06

    ------------------------------------------------
       NWT REQUIRED            6 OUTER ITERATIONS 
       AND A TOTAL OF         10 INNER ITERATIONS.
    ------------------------------------------------

 NO OUTPUT CONTROL FOR STRESS PERIOD    4   TIME STEP    6
 
 SOLVING FOR HEAD 
                                                   Max.-Head-Change                         Max.-Flux-Residual
  Residual-Control   Outer-Iter.   Inner-Iter.     Column Row Layer    Maximum-Head-Change  Column Row Layer    Maximum-Flux-Residual          L2-NORM 
          0                 1           2            50    2     1       0.1670798227E+00      50    3    1         0.2597604384E-01      0.1200372245E+00
          0                 2           2            50    2     1      -0.1659071021E-01      50    3    1        -0.2610680442E-02      0.1181828124E-01
          0                 3           2            50    2     1       0.1479274162E-02      50    3    1         0.2348316357E-03      0.1063114200E-02
          0                 4           2            50    2     1      -0.1174185168E-03      50    3    1        -0.1881104876E-04      0.8605282961E-04
          0                 5           1            50    2     1       0.8179584667E-05      50    3    1         0.1322391977E-05      0.6151495037E-05
          0                 6           1            50    2     1      -0.4911253477E-06      50    3    1        -0.8011341990E-07      0.3799098815E-06

    ------------------------------------------------
       NWT REQUIRED            6 OUTER ITERATIONS 
       AND A TOTAL OF         10 INNER ITERATIONS.
    ------------------------------------------------

 NO OUTPUT CONTROL FOR STRESS PERIOD    4   TIME STEP    7
 
 SOLVING FOR HEAD 
                                                   Max.-Head-Change                         Max.-Flux-Residual
  Residual-Control   Outer-Iter.   Inner-Iter.     Column Row Layer    Maximum-Head-Change  Column Row Layer    Maximum-Flux-Residual          L2-NORM 
          0                 1           2            50    2     1       0.1464044749E+00      50    2    1         0.1958419210E-01      0.1113255069E+00
          0                 2           2            50    2     1      -0.1453605652E-01      50    2    1        -0.1963882575E-02      0.1093008225E-01
          0                 3           2            50    2     1       0.1296102390E-02      50    2    1         0.1766956709E-03      0.9832491552E-03
          0                 4           1            50    2     1      -0.1028787407E-03      50    2    1        -0.1415375450E-04      0.7975646149E-04
          0                 5           1            50    2     1       0.7165920223E-05      50    2    1         0.9949925106E-06      0.5720983200E-05
          0                 6           1            50    2     1      -0.4302412725E-06      50    2    1        -0.6029263044E-07      0.3548596523E-06

    ------------------------------------------------
       NWT REQUIRED            6 OUTER ITERATIONS 
       AND A TOTAL OF          9 INNER ITERATIONS.
    ------------------------------------------------

 NO OUTPUT CONTROL FOR STRESS PERIOD    4   TIME STEP    8
 
 SOLVING FOR HEAD 
                                                   Max.-Head-Change                         Max.-Flux-Residual
  Residual-Control   Outer-Iter.   Inner-Iter.     Column Row Layer    Maximum-Head-Change  Column Row Layer    Maximum-Flux-Residual          L2-NORM 
          0                 1           2            50    1     1       0.1310109865E+00      50    2    1         0.1560085031E-01      0.1048879888E+00
          0                 2           2            50    1     1      -0.1300834274E-01      50    2    1        -0.1564187736E-02      0.1027253432E-01
          0                 3           2            50    1     1       0.1159971960E-02      50    2    1         0.1407365086E-03      0.9242041319E-03
          0                 4           1            50    1     1      -0.9207842542E-04      50    2    1        -0.1127331852E-04      0.7514102488E-04
          0                 5           1            50    1     1       0.6413058139E-05      50    2    1         0.7925013286E-06      0.5410516267E-05
          0                 6           1            50    1     1      -0.3849943034E-06      50    2    1        -0.4802245535E-07      0.3371709608E-06

    ------------------------------------------------
       NWT REQUIRED            6 OUTER ITERATIONS 
       AND A TOTAL OF          9 INNER ITERATIONS.
    ------------------------------------------------

 NO OUTPUT CONTROL FOR STRESS PERIOD    4   TIME STEP    9
 
 SOLVING FOR HEAD 
                                                   Max.-Head-Change                         Max.-Flux-Residual
  Residual-Control   Outer-Iter.   Inner-Iter.     Column Row Layer    Maximum-Head-Change  Column Row Layer    Maximum-Flux-Residual          L2-NORM 
          0                 1           2            50    1     1       0.1165145305E+00      50    1    1         0.1269132688E-01      0.1000751388E+00
          0                 2           2            50    1     1      -0.1156768029E-01      50    1    1        -0.1272925197E-02      0.9782776016E-02
          0                 3           2            50    1     1       0.1031568959E-02      50    1    1         0.1145257945E-03      0.8801321705E-03
          0                 4           1            50    1     1      -0.8188825921E-04      50    1    1        -0.9173816394E-05      0.7168353950E-04
          0                 5           1            50    1     1       0.5702837667E-05      50    1    1         0.6445581135E-06      0.5177472626E-05
          0                 6           1            50    1     1      -0.3423191321E-06      50    1    1        -0.3903336232E-07      0.3239362184E-06

    ------------------------------------------------
       NWT REQUIRED            6 OUTER ITERATIONS 
       AND A TOTAL OF          9 INNER ITERATIONS.
    ------------------------------------------------

 NO OUTPUT CONTROL FOR STRESS PERIOD    4   TIME STEP   10
 
 SOLVING FOR HEAD 
                                                   Max.-Head-Change                         Max.-Flux-Residual
  Residual-Control   Outer-Iter.   Inner-Iter.     Column Row Layer    Maximum-Head-Change  Column Row Layer    Maximum-Flux-Residual          L2-NORM 
          0                 1           2            50    1     1       0.1031526165E+00      50    1    1         0.1026104838E-01      0.9642306685E-01
          0                 2           2            50    1     1      -0.1023960326E-01      50    1    1        -0.1028861687E-02      0.9412468614E-02
          0                 3           2            50    1     1       0.9132137027E-03      50    1    1         0.9257032998E-04      0.8468536015E-03
          0                 4           1            50    1     1      -0.7249615437E-04      50    1    1        -0.7415101707E-05      0.6908144263E-04
          0                 5           1            50    1     1       0.5048175386E-05      50    1    1         0.5208576770E-06      0.5003292233E-05
          0                 6           1            50    1     1      -0.3029762578E-06      50    1    1        -0.3153260053E-07      0.3141850080E-06

    ------------------------------------------------
       NWT REQUIRED            6 OUTER ITERATIONS 
       AND A TOTAL OF          9 INNER ITERATIONS.
    ------------------------------------------------

 NO OUTPUT CONTROL FOR STRESS PERIOD    4   TIME STEP   11
 
 SOLVING FOR HEAD 
                                                   Max.-Head-Change                         Max.-Flux-Residual
  Residual-Control   Outer-Iter.   Inner-Iter.     Column Row Layer    Maximum-Head-Change  Column Row Layer    Maximum-Flux-Residual          L2-NORM 
          0                 1           2            61    1     1      -0.9713897423E-01      50    1    1         0.8258589058E-02      0.9358848366E-01
          0                 2           2            61    1     1       0.9347550959E-02      50    1    1        -0.8277736923E-03      0.9126415824E-02
          0                 3           2            61    1     1      -0.8108865478E-03      50    1    1         0.7448074003E-04      0.8211967003E-03
          0                 4           1            50    1     1      -0.6409467368E-04      50    1    1        -0.5966058909E-05      0.6708201937E-04
          0                 5           1            50    1     1       0.4462480691E-05      50    1    1         0.4189214753E-06      0.4870214558E-05
          0                 6           1            50    1     1      -0.2677705006E-06      62    4    1        -0.2560042134E-07      0.3068331538E-06

    ------------------------------------------------
       NWT REQUIRED            6 OUTER ITERATIONS 
       AND A TOTAL OF          9 INNER ITERATIONS.
    ------------------------------------------------

 NO OUTPUT CONTROL FOR STRESS PERIOD    4   TIME STEP   12
 
 SOLVING FOR HEAD 
                                                   Max.-Head-Change                         Max.-Flux-Residual
  Residual-Control   Outer-Iter.   Inner-Iter.     Column Row Layer    Maximum-Head-Change  Column Row Layer    Maximum-Flux-Residual          L2-NORM 
          0                 1           2            61    1     1      -0.1046797612E+00      61    1    1        -0.7090222743E-02      0.9113608026E-01
          0                 2           2            61    1     1       0.1005556552E-01      61    1    1         0.7088129802E-03      0.8899515800E-02
          0                 3           2            61    1     1      -0.8706454493E-03      61    1    1        -0.6379788780E-04      0.8029726774E-03
          0                 4           1            61    1     1       0.6718070670E-04      61    1    1         0.5110156799E-05      0.6582480542E-04
          0                 5           1            61    1     1      -0.4555537153E-05      61    1    1        -0.3592395004E-06      0.4795942313E-05
          0                 6           1            61    1     1       0.2667429106E-06      62    4    1        -0.2593014514E-07      0.3031882845E-06

    ------------------------------------------------
       NWT REQUIRED            6 OUTER ITERATIONS 
       AND A TOTAL OF          9 INNER ITERATIONS.
    ------------------------------------------------

 NO OUTPUT CONTROL FOR STRESS PERIOD    4   TIME STEP   13
 
 SOLVING FOR HEAD 
                                                   Max.-Head-Change                         Max.-Flux-Residual
  Residual-Control   Outer-Iter.   Inner-Iter.     Column Row Layer    Maximum-Head-Change  Column Row Layer    Maximum-Flux-Residual          L2-NORM 
          0                 1           2            62    1     1      -0.1131053753E+00      61    1    1        -0.6947102528E-02      0.8882698590E-01
          0                 2           2            62    1     1       0.1083540241E-01      61    1    1         0.6944514945E-03      0.8676290815E-02
          0                 3           2            62    1     1      -0.9352978925E-03      61    1    1        -0.6250610584E-04      0.7839456327E-03
          0                 4           1            62    1     1       0.7192844276E-04      61    1    1         0.5006677176E-05      0.6441889120E-04
          0                 5           1            62    1     1      -0.4858767849E-05      61    1    1        -0.3519650527E-06      0.4706227758E-05
          0                 6           1            62    1     1       0.2833043726E-06      62    4    1        -0.2614994798E-07      0.2984064577E-06

    ------------------------------------------------
       NWT REQUIRED            6 OUTER ITERATIONS 
       AND A TOTAL OF          9 INNER ITERATIONS.
    ------------------------------------------------

 NO OUTPUT CONTROL FOR STRESS PERIOD    4   TIME STEP   14
 
 SOLVING FOR HEAD 
                                                   Max.-Head-Change                         Max.-Flux-Residual
  Residual-Control   Outer-Iter.   Inner-Iter.     Column Row Layer    Maximum-Head-Change  Column Row Layer    Maximum-Flux-Residual          L2-NORM 
          0                 1           2            62    1     1      -0.1222365923E+00      62    1    1        -0.6825517302E-02      0.8677935356E-01
          0                 2           2            62    1     1       0.1168995321E-01      62    1    1         0.6823546536E-03      0.8466622538E-02
          0                 3           2            62    1     1      -0.1007116597E-02      62    1    1        -0.6141719959E-04      0.7653012964E-03
          0                 4           1            62    1     1       0.7727976441E-04      62    1    1         0.4919455007E-05      0.6300210061E-04
          0                 5           1            62    1     1      -0.5205732100E-05      62    3    1        -0.3458259776E-06      0.4613826974E-05
          0                 6           1            62    1     1       0.3025706180E-06      62    4    1        -0.2625564122E-07      0.2934041235E-06

    ------------------------------------------------
       NWT REQUIRED            6 OUTER ITERATIONS 
       AND A TOTAL OF          9 INNER ITERATIONS.
    ------------------------------------------------

 NO OUTPUT CONTROL FOR STRESS PERIOD    4   TIME STEP   15
 
 SOLVING FOR HEAD 
                                                   Max.-Head-Change                         Max.-Flux-Residual
  Residual-Control   Outer-Iter.   Inner-Iter.     Column Row Layer    Maximum-Head-Change  Column Row Layer    Maximum-Flux-Residual          L2-NORM 
          0                 1           2            62    1     1      -0.1317167336E+00      62    1    1        -0.6706977442E-02      0.8496902231E-01
          0                 2           2            62    1     1       0.1257505769E-01      62    1    1         0.6704533685E-03      0.8284111565E-02
          0                 3           2            62    1     1      -0.1081298899E-02      62    1    1        -0.6034688595E-04      0.7493590341E-03
          0                 4           1            62    1     1       0.8278718631E-04      62    1    1         0.4833714344E-05      0.6181699671E-04
          0                 5           1            62    1     1      -0.5560306327E-05      67    4    1         0.3723148723E-06      0.4537621350E-05
          0                 6           1            62    1     1       0.3220707827E-06      67    4    1        -0.2868772242E-07      0.2893410415E-06

    ------------------------------------------------
       NWT REQUIRED            6 OUTER ITERATIONS 
       AND A TOTAL OF          9 INNER ITERATIONS.
    ------------------------------------------------

 NO OUTPUT CONTROL FOR STRESS PERIOD    4   TIME STEP   16
 
 SOLVING FOR HEAD 
                                                   Max.-Head-Change                         Max.-Flux-Residual
  Residual-Control   Outer-Iter.   Inner-Iter.     Column Row Layer    Maximum-Head-Change  Column Row Layer    Maximum-Flux-Residual          L2-NORM 
          0                 1           2            62    1     1      -0.1414794537E+00      62    1    1        -0.6571114863E-02      0.8326738293E-01
          0                 2           2            62    1     1       0.1348114045E-01      62    1    1         0.6568141109E-03      0.8115082975E-02
          0                 3           2            62    1     1      -0.1156814884E-02      62    1    1        -0.5912022456E-04      0.7351592238E-03
          0                 4           1            62    1     1       0.8836056221E-04      62    1    1         0.4735449359E-05      0.6082235254E-04
          0                 5           1            62    1     1      -0.5915317928E-05      66    4    1         0.4103388598E-06      0.4477027426E-05
          0                 6           1            62    1     1       0.3413427931E-06      65    4    1        -0.3133338211E-07      0.2862802612E-06

    ------------------------------------------------
       NWT REQUIRED            6 OUTER ITERATIONS 
       AND A TOTAL OF          9 INNER ITERATIONS.
    ------------------------------------------------

 NO OUTPUT CONTROL FOR STRESS PERIOD    4   TIME STEP   17
 
 SOLVING FOR HEAD 
                                                   Max.-Head-Change                         Max.-Flux-Residual
  Residual-Control   Outer-Iter.   Inner-Iter.     Column Row Layer    Maximum-Head-Change  Column Row Layer    Maximum-Flux-Residual          L2-NORM 
          0                 1           2            63    1     1      -0.1516625085E+00      62    1    1        -0.6417594808E-02      0.8157191557E-01
          0                 2           2            63    1     1       0.1438346536E-01      62    1    1         0.6413899699E-03      0.7965619999E-02
          0                 3           2            62    1     1      -0.1231087425E-02      62    1    1        -0.5773311179E-04      0.7240849596E-03
          0                 4           1            62    1     1       0.9379127699E-04      62    1    1         0.4624330787E-05      0.6014992748E-04
          0                 5           1            62    1     1      -0.6255401958E-05      64    4    1         0.4343343747E-06      0.4440209560E-05
          0                 6           1            62    1     1       0.3594493293E-06      64    4    1        -0.3349869715E-07      0.2845755866E-06

    ------------------------------------------------
       NWT REQUIRED            6 OUTER ITERATIONS 
       AND A TOTAL OF          9 INNER ITERATIONS.
    ------------------------------------------------

 NO OUTPUT CONTROL FOR STRESS PERIOD    4   TIME STEP   18
 
 SOLVING FOR HEAD 
                                                   Max.-Head-Change                         Max.-Flux-Residual
  Residual-Control   Outer-Iter.   Inner-Iter.     Column Row Layer    Maximum-Head-Change  Column Row Layer    Maximum-Flux-Residual          L2-NORM 
          0                 1           2            63    1     1      -0.1605632769E+00      63    1    1        -0.6256696375E-02      0.7960581065E-01
          0                 2           2            63    1     1       0.1511464963E-01      63    1    1         0.6251848373E-03      0.7760943484E-02
          0                 3           2            62    1     1      -0.1283158317E-02      63    1    1        -0.5627660135E-04      0.7065998721E-03
          0                 4           1            62    1     1       0.9710884451E-04      63    4    1        -0.4557321077E-05      0.5892555328E-04
          0                 5           1            62    1     1      -0.6430526461E-05      63    4    1         0.4443703041E-06      0.4364051069E-05
          0                 6           1            62    1     1       0.3670409229E-06      63    4    1        -0.3365057921E-07      0.2805528905E-06

    ------------------------------------------------
       NWT REQUIRED            6 OUTER ITERATIONS 
       AND A TOTAL OF          9 INNER ITERATIONS.
    ------------------------------------------------

 NO OUTPUT CONTROL FOR STRESS PERIOD    4   TIME STEP   19
 
 SOLVING FOR HEAD 
                                                   Max.-Head-Change                         Max.-Flux-Residual
  Residual-Control   Outer-Iter.   Inner-Iter.     Column Row Layer    Maximum-Head-Change  Column Row Layer    Maximum-Flux-Residual          L2-NORM 
          0                 1           2            63    1     1      -0.1707021557E+00      63    1    1        -0.6025664844E-02      0.7766455943E-01
          0                 2           2            63    1     1       0.1602005454E-01      63    1    1         0.6021078605E-03      0.7567068343E-02
          0                 3           2            63    1     1      -0.1353947293E-02      63    1    1        -0.5419992343E-04      0.6901135139E-03
          0                 4           1            63    1     1       0.1018393132E-03      63    1    1         0.4341296783E-05      0.5774702813E-04
          0                 5           1            63    1     1      -0.6689276786E-05      62    4    1         0.4253857462E-06      0.4285636160E-05
          0                 6           1            63    1     1       0.3785208012E-06      62    4    1        -0.3264509729E-07      0.2760511455E-06

    ------------------------------------------------
       NWT REQUIRED            6 OUTER ITERATIONS 
       AND A TOTAL OF          9 INNER ITERATIONS.
    ------------------------------------------------

 NO OUTPUT CONTROL FOR STRESS PERIOD    4   TIME STEP   20
 
 SOLVING FOR HEAD 
                                                   Max.-Head-Change                         Max.-Flux-Residual
  Residual-Control   Outer-Iter.   Inner-Iter.     Column Row Layer    Maximum-Head-Change  Column Row Layer    Maximum-Flux-Residual          L2-NORM 
          0                 1           3            64    1     1      -0.1823982958E+00      63    1    1        -0.5825322641E-02      0.7585142769E-01
          0                 2           2            64    1     1       0.1705940708E-01      63    1    1         0.5821032630E-03      0.7394104405E-02
          0                 3           2            63    1     1      -0.1437393226E-02      63    1    1        -0.5239975300E-04      0.6775829043E-03
          0                 4           2            63    1     1       0.1077983958E-03      63    1    1         0.4197097716E-05      0.5707074411E-04
          0                 5           1            63    1     1      -0.7093243794E-05      43    4    1         0.4115256651E-06      0.4297018149E-05
          0                 6           1            63    1     1       0.3981141483E-06      42    4    1        -0.3103428980E-07      0.2773140817E-06

    ------------------------------------------------
       NWT REQUIRED            6 OUTER ITERATIONS 
       AND A TOTAL OF         11 INNER ITERATIONS.
    ------------------------------------------------

 NO OUTPUT CONTROL FOR STRESS PERIOD    4   TIME STEP   21
 
 SOLVING FOR HEAD 
                                                   Max.-Head-Change                         Max.-Flux-Residual
  Residual-Control   Outer-Iter.   Inner-Iter.     Column Row Layer    Maximum-Head-Change  Column Row Layer    Maximum-Flux-Residual          L2-NORM 
          0                 1           3            64    1     1      -0.1959744353E+00      64    1    1        -0.5660258322E-02      0.7401637989E-01
          0                 2           2            64    1     1       0.1829679117E-01      64    1    1         0.5656800497E-03      0.7229452181E-02
          0                 3           2            64    1     1      -0.1536917595E-02      64    1    1        -0.5092101246E-04      0.6656434631E-03
          0                 4           2            64    1     1       0.1148173313E-03      64    1    1         0.4078633463E-05      0.5638233312E-04
          0                 5           1            64    1     1      -0.7517500018E-05      64    4    1         0.3845861087E-06      0.4266574604E-05
          0                 6           1            63    1     1       0.4171728056E-06      64    4    1        -0.3067881238E-07      0.2753843598E-06

    ------------------------------------------------
       NWT REQUIRED            6 OUTER ITERATIONS 
       AND A TOTAL OF         11 INNER ITERATIONS.
    ------------------------------------------------

 NO OUTPUT CONTROL FOR STRESS PERIOD    4   TIME STEP   22
 
 SOLVING FOR HEAD 
                                                   Max.-Head-Change                         Max.-Flux-Residual
  Residual-Control   Outer-Iter.   Inner-Iter.     Column Row Layer    Maximum-Head-Change  Column Row Layer    Maximum-Flux-Residual          L2-NORM 
          0                 1           3            64    1     1      -0.2101590742E+00      64    1    1        -0.5529524415E-02      0.7221887475E-01
          0                 2           2            64    1     1       0.1958857045E-01      64    1    1         0.5525594466E-03      0.7039824902E-02
          0                 3           2            64    1     1      -0.1642128917E-02      64    1    1        -0.4974077860E-04      0.6490935696E-03
          0                 4           2            64    1     1       0.1223702362E-03      71    4    1        -0.4432271705E-05      0.5517817743E-04
          0                 5           1            64    1     1      -0.7984632790E-05      71    4    1         0.4300681695E-06      0.4193299768E-05
          0                 6           1            64    1     1       0.4376140391E-06      71    4    1        -0.3204761256E-07      0.2704599671E-06

    ------------------------------------------------
       NWT REQUIRED            6 OUTER ITERATIONS 
       AND A TOTAL OF         11 INNER ITERATIONS.
    ------------------------------------------------

 NO OUTPUT CONTROL FOR STRESS PERIOD    4   TIME STEP   23
 
 SOLVING FOR HEAD 
                                                   Max.-Head-Change                         Max.-Flux-Residual
  Residual-Control   Outer-Iter.   Inner-Iter.     Column Row Layer    Maximum-Head-Change  Column Row Layer    Maximum-Flux-Residual          L2-NORM 
          0                 1           3            64    1     1      -0.2248908107E+00      64    1    1        -0.5391446628E-02      0.7074637598E-01
          0                 2           2            64    1     1       0.2092489083E-01      64    1    1         0.5386999099E-03      0.6881621582E-02
          0                 3           2            64    1     1      -0.1750578493E-02      64    7    1        -0.4849399271E-04      0.6353448578E-03
          0                 4           2            64    7     1       0.1301279569E-03      70    4    1        -0.4864885970E-05      0.5420345896E-04
          0                 5           1            64    1     1      -0.8461566310E-05      69    4    1         0.4734517631E-06      0.4137018219E-05
          0                 6           1            64    1     1       0.4581133866E-06      69    4    1        -0.3521618197E-07      0.2663760049E-06

    ------------------------------------------------
       NWT REQUIRED            6 OUTER ITERATIONS 
       AND A TOTAL OF         11 INNER ITERATIONS.
    ------------------------------------------------

 NO OUTPUT CONTROL FOR STRESS PERIOD    4   TIME STEP   24
 
 SOLVING FOR HEAD 
                                                   Max.-Head-Change                         Max.-Flux-Residual
  Residual-Control   Outer-Iter.   Inner-Iter.     Column Row Layer    Maximum-Head-Change  Column Row Layer    Maximum-Flux-Residual          L2-NORM 
          0                 1           3            65    1     1      -0.2404503698E+00      64    1    1        -0.5245675369E-02      0.6952421893E-01
          0                 2           2            65    1     1       0.2229840936E-01      64    1    1         0.5240639047E-03      0.6752896628E-02
          0                 3           2            64    7     1      -0.1861027404E-02      64    7    1        -0.4717872500E-04      0.6237644503E-03
          0                 4           2            64    7     1       0.1379914189E-03      68    4    1        -0.5230583341E-05      0.5332418895E-04
          0                 5           1            64    1     1      -0.8940596463E-05      68    4    1         0.5048214788E-06      0.4081257268E-05
          0                 6           1            64    1     1       0.4768221955E-06      68    4    1        -0.3805501336E-07      0.2618314189E-06

    ------------------------------------------------
       NWT REQUIRED            6 OUTER ITERATIONS 
       AND A TOTAL OF         11 INNER ITERATIONS.
    ------------------------------------------------

 NO OUTPUT CONTROL FOR STRESS PERIOD    4   TIME STEP   25
 
 SOLVING FOR HEAD 
                                                   Max.-Head-Change                         Max.-Flux-Residual
  Residual-Control   Outer-Iter.   Inner-Iter.     Column Row Layer    Maximum-Head-Change  Column Row Layer    Maximum-Flux-Residual          L2-NORM 
          0                 1           3            65    1     1      -0.2558792313E+00      65    1    1        -0.5100188107E-02      0.6788943716E-01
          0                 2           2            64    1     1       0.2357723145E-01      65    1    1         0.5094752580E-03      0.6602803932E-02
          0                 3           2            64    7     1      -0.1958863329E-02      65    1    1        -0.4586750318E-04      0.6125173578E-03
          0                 4           2            64    7     1       0.1445431866E-03      67    4    1        -0.5463924676E-05      0.5263668625E-04
          0                 5           1            64    1     1      -0.9313632384E-05      67    4    1         0.5200765791E-06      0.4047559147E-05
          0                 6           1            64    1     1       0.4872573528E-06      66    4    1        -0.3914204072E-07      0.2584673829E-06

    ------------------------------------------------
       NWT REQUIRED            6 OUTER ITERATIONS 
       AND A TOTAL OF         11 INNER ITERATIONS.
    ------------------------------------------------

 NO OUTPUT CONTROL FOR STRESS PERIOD    4   TIME STEP   26
 
 SOLVING FOR HEAD 
                                                   Max.-Head-Change                         Max.-Flux-Residual
  Residual-Control   Outer-Iter.   Inner-Iter.     Column Row Layer    Maximum-Head-Change  Column Row Layer    Maximum-Flux-Residual          L2-NORM 
          0                 1           3            65    1     1      -0.2703698819E+00      65    1    1        -0.4937596079E-02      0.6639408317E-01
          0                 2           2            64    1     1       0.2475288825E-01      65    1    1         0.4930775357E-03      0.6475198063E-02
          0                 3           2            64    1     1      -0.2043284158E-02      65    1    1        -0.4439410794E-04      0.6046397130E-03
          0                 4           2            64    1     1       0.1497764145E-03      66    4    1        -0.5350656828E-05      0.5233023012E-04
          0                 5           1            64    1     1      -0.9578607706E-05      65    4    1         0.5178046081E-06      0.4046643423E-05
          0                 6           1            63    1     1       0.4956294739E-06      66    4    1        -0.3865232756E-07      0.2570240270E-06

    ------------------------------------------------
       NWT REQUIRED            6 OUTER ITERATIONS 
       AND A TOTAL OF         11 INNER ITERATIONS.
    ------------------------------------------------

 NO OUTPUT CONTROL FOR STRESS PERIOD    4   TIME STEP   27
 
 SOLVING FOR HEAD 
                                                   Max.-Head-Change                         Max.-Flux-Residual
  Residual-Control   Outer-Iter.   Inner-Iter.     Column Row Layer    Maximum-Head-Change  Column Row Layer    Maximum-Flux-Residual          L2-NORM 
          0                 1           3            65    7     1      -0.2859084127E+00      65    1    1        -0.4746579564E-02      0.6480879322E-01
          0                 2           3            65    7     1       0.2582686925E-01      65    1    1         0.4739552684E-03      0.6315524886E-02
          0                 3           2            65    7     1      -0.2095755746E-02      65    1    1        -0.4267453346E-04      0.5925384368E-03
          0                 4           2            65    7     1       0.1509679733E-03      64    4    1        -0.5242402995E-05      0.5162983651E-04
          0                 5           1            41    7     1      -0.9558084467E-05      64    4    1         0.5020355083E-06      0.4016868843E-05
          0                 6           1            41    7     1       0.4845774968E-06      64    4    1        -0.3773589796E-07      0.2536735406E-06

    ------------------------------------------------
       NWT REQUIRED            6 OUTER ITERATIONS 
       AND A TOTAL OF         12 INNER ITERATIONS.
    ------------------------------------------------

 NO OUTPUT CONTROL FOR STRESS PERIOD    4   TIME STEP   28
 
 SOLVING FOR HEAD 
                                                   Max.-Head-Change                         Max.-Flux-Residual
  Residual-Control   Outer-Iter.   Inner-Iter.     Column Row Layer    Maximum-Head-Change  Column Row Layer    Maximum-Flux-Residual          L2-NORM 
          0                 1           3            66    7     1      -0.3052889344E+00      65    7    1        -0.4566455945E-02      0.6328585050E-01
          0                 2           3            66    7     1       0.2747079488E-01      65    7    1         0.4559968300E-03      0.6165537196E-02
          0                 3           2            66    7     1      -0.2219037232E-02      65    7    1        -0.4105854776E-04      0.5805346659E-03
          0                 4           2            66    7     1       0.1590005986E-03      63    4    1        -0.4915072591E-05      0.5082903256E-04
          0                 5           1            65    1     1      -0.9908047137E-05      63    4    1         0.4707570973E-06      0.3972297086E-05
          0                 6           1            42    7     1       0.4776653176E-06      66    4    1        -0.3537779492E-07      0.2486351412E-06

    ------------------------------------------------
       NWT REQUIRED            6 OUTER ITERATIONS 
       AND A TOTAL OF         12 INNER ITERATIONS.
    ------------------------------------------------

 NO OUTPUT CONTROL FOR STRESS PERIOD    4   TIME STEP   29
 
 SOLVING FOR HEAD 
                                                   Max.-Head-Change                         Max.-Flux-Residual
  Residual-Control   Outer-Iter.   Inner-Iter.     Column Row Layer    Maximum-Head-Change  Column Row Layer    Maximum-Flux-Residual          L2-NORM 
          0                 1           3            66    7     1      -0.3259650858E+00      66    7    1        -0.4434149807E-02      0.6191512331E-01
          0                 2           3            66    1     1       0.2927780921E-01      66    1    1         0.4428288230E-03      0.6032604707E-02
          0                 3           2            66    7     1      -0.2359852672E-02      66    1    1        -0.3987367533E-04      0.5700698232E-03
          0                 4           2            66    7     1       0.1685977299E-03      41    4    1        -0.4561469904E-05      0.5015568614E-04
          0                 5           1            66    1     1      -0.1042955752E-04      66    4    1         0.4518971508E-06      0.3936944678E-05
          0                 6           1            65    1     1       0.4669381271E-06      66    4    1        -0.3465339660E-07      0.2435464603E-06

    ------------------------------------------------
       NWT REQUIRED            6 OUTER ITERATIONS 
       AND A TOTAL OF         12 INNER ITERATIONS.
    ------------------------------------------------

 NO OUTPUT CONTROL FOR STRESS PERIOD    4   TIME STEP   30



 STREAM LISTING     PERIOD      4   STEP       30

 LAYER ROW COL. STREAM  RCH.   FLOW INTO    STREAM     FLOW OUT OF   OVRLND.    DIRECT     STREAM      STREAM      STREAM     STREAM  STREAMBED   FLOW TO   CHNG. UNSAT. 
                SEG.NO.  NO.   STRM. RCH.    LOSS       STRM. RCH.   RUNOFF     PRECIP       ET         HEAD        DEPTH      WIDTH  CONDCTNC.   WAT. TAB.

   1    4    1     1     1    1.7850E+01  4.7593E-03   1.7845E+01  0.000E+00  0.000E+00  0.000E+00  1.43063E+02  3.213E+00  5.656E+00  1.282E-03  4.219E-03  5.514E-04
   1    4    2     1     2    1.7845E+01  4.7583E-03   1.7840E+01  0.000E+00  0.000E+00  0.000E+00  1.42762E+02  3.212E+00  5.656E+00  1.282E-03  4.218E-03  5.511E-04
   1    4    3     1     3    1.7840E+01  4.7572E-03   1.7836E+01  0.000E+00  0.000E+00  0.000E+00  1.42462E+02  3.212E+00  5.655E+00  1.282E-03  4.218E-03  5.509E-04
   1    4    4     1     4    1.7836E+01  4.7562E-03   1.7831E+01  0.000E+00  0.000E+00  0.000E+00  1.42161E+02  3.211E+00  5.655E+00  1.282E-03  4.216E-03  5.509E-04
   1    4    5     1     5    1.7831E+01  4.7551E-03   1.7826E+01  0.000E+00  0.000E+00  0.000E+00  1.41861E+02  3.211E+00  5.654E+00  1.281E-03  4.215E-03  5.512E-04
   1    4    6     1     6    1.7826E+01  4.7541E-03   1.7821E+01  0.000E+00  0.000E+00  0.000E+00  1.41560E+02  3.210E+00  5.654E+00  1.281E-03  4.214E-03  5.516E-04
   1    4    7     1     7    1.7821E+01  4.7530E-03   1.7817E+01  0.000E+00  0.000E+00  0.000E+00  1.41260E+02  3.210E+00  5.653E+00  1.281E-03  4.212E-03  5.522E-04
   1    4    8     1     8    1.7817E+01  4.7520E-03   1.7812E+01  0.000E+00  0.000E+00  0.000E+00  1.40960E+02  3.210E+00  5.653E+00  1.281E-03  4.210E-03  5.531E-04
   1    4    9     1     9    1.7812E+01  4.7510E-03   1.7807E+01  0.000E+00  0.000E+00  0.000E+00  1.40659E+02  3.209E+00  5.652E+00  1.281E-03  4.208E-03  5.542E-04
   1    4   10     1    10    1.7807E+01  4.7499E-03   1.7802E+01  0.000E+00  0.000E+00  0.000E+00  1.40359E+02  3.209E+00  5.652E+00  1.281E-03  4.205E-03  5.556E-04
   1    4   11     1    11    1.7802E+01  4.7489E-03   1.7798E+01  0.000E+00  0.000E+00  0.000E+00  1.40058E+02  3.208E+00  5.651E+00  1.281E-03  4.203E-03  5.574E-04
   1    4   12     1    12    1.7798E+01  4.7478E-03   1.7793E+01  0.000E+00  0.000E+00  0.000E+00  1.39758E+02  3.208E+00  5.651E+00  1.280E-03  4.199E-03  5.596E-04
   1    4   13     1    13    1.7793E+01  4.7468E-03   1.7788E+01  0.000E+00  0.000E+00  0.000E+00  1.39457E+02  3.207E+00  5.650E+00  1.280E-03  4.196E-03  5.621E-04
   1    4   14     1    14    1.7788E+01  4.7457E-03   1.7783E+01  0.000E+00  0.000E+00  0.000E+00  1.39157E+02  3.207E+00  5.649E+00  1.280E-03  4.192E-03  5.652E-04
   1    4   15     1    15    1.7783E+01  4.7447E-03   1.7779E+01  0.000E+00  0.000E+00  0.000E+00  1.38857E+02  3.207E+00  5.649E+00  1.280E-03  4.187E-03  5.689E-04
   1    4   16     1    16    1.7779E+01  4.7436E-03   1.7774E+01  0.000E+00  0.000E+00  0.000E+00  1.38556E+02  3.206E+00  5.648E+00  1.280E-03  4.182E-03  5.731E-04
   1    4   17     1    17    1.7774E+01  4.7426E-03   1.7769E+01  0.000E+00  0.000E+00  0.000E+00  1.38256E+02  3.206E+00  5.648E+00  1.280E-03  4.176E-03  5.779E-04
   1    4   18     1    18    1.7769E+01  4.7415E-03   1.7764E+01  0.000E+00  0.000E+00  0.000E+00  1.37955E+02  3.205E+00  5.647E+00  1.280E-03  4.169E-03  5.835E-04
   1    4   19     1    19    1.7764E+01  4.7405E-03   1.7760E+01  0.000E+00  0.000E+00  0.000E+00  1.37655E+02  3.205E+00  5.647E+00  1.280E-03  4.162E-03  5.898E-04
   1    4   20     1    20    1.7760E+01  4.7395E-03   1.7755E+01  0.000E+00  0.000E+00  0.000E+00  1.37355E+02  3.205E+00  5.646E+00  1.279E-03  4.154E-03  5.969E-04
   1    4   21     1    21    1.7755E+01  4.7384E-03   1.7750E+01  0.000E+00  0.000E+00  0.000E+00  1.37054E+02  3.204E+00  5.646E+00  1.279E-03  4.145E-03  6.048E-04
   1    4   22     1    22    1.7750E+01  4.7374E-03   1.7746E+01  0.000E+00  0.000E+00  0.000E+00  1.36754E+02  3.204E+00  5.645E+00  1.279E-03  4.135E-03  6.136E-04
   1    4   23     1    23    1.7746E+01  4.7363E-03   1.7741E+01  0.000E+00  0.000E+00  0.000E+00  1.36453E+02  3.203E+00  5.645E+00  1.279E-03  4.124E-03  6.232E-04
   1    4   24     1    24    1.7741E+01  4.7353E-03   1.7736E+01  0.000E+00  0.000E+00  0.000E+00  1.36153E+02  3.203E+00  5.644E+00  1.279E-03  4.113E-03  6.338E-04
   1    4   25     1    25    1.7736E+01  4.7342E-03   1.7731E+01  0.000E+00  0.000E+00  0.000E+00  1.35852E+02  3.202E+00  5.644E+00  1.279E-03  4.100E-03  6.452E-04
   1    4   26     1    26    1.7731E+01  4.7332E-03   1.7727E+01  0.000E+00  0.000E+00  0.000E+00  1.35552E+02  3.202E+00  5.643E+00  1.279E-03  4.087E-03  6.575E-04
   1    4   27     1    27    1.7727E+01  4.7321E-03   1.7722E+01  0.000E+00  0.000E+00  0.000E+00  1.35252E+02  3.202E+00  5.643E+00  1.278E-03  4.073E-03  6.706E-04
   1    4   28     1    28    1.7722E+01  4.7311E-03   1.7717E+01  0.000E+00  0.000E+00  0.000E+00  1.34951E+02  3.201E+00  5.642E+00  1.278E-03  4.058E-03  6.844E-04
   1    4   29     1    29    1.7717E+01  4.7301E-03   1.7712E+01  0.000E+00  0.000E+00  0.000E+00  1.34651E+02  3.201E+00  5.642E+00  1.278E-03  4.042E-03  6.989E-04
   1    4   30     1    30    1.7712E+01  4.7290E-03   1.7708E+01  0.000E+00  0.000E+00  0.000E+00  1.34350E+02  3.200E+00  5.641E+00  1.278E-03  4.026E-03  7.138E-04
   1    4   31     1    31    1.7708E+01  4.7280E-03   1.7703E+01  0.000E+00  0.000E+00  0.000E+00  1.34050E+02  3.200E+00  5.641E+00  1.278E-03  4.010E-03  7.290E-04
   1    4   32     1    32    1.7703E+01  4.7269E-03   1.7698E+01  0.000E+00  0.000E+00  0.000E+00  1.33749E+02  3.199E+00  5.640E+00  1.278E-03  3.994E-03  7.443E-04
   1    4   33     1    33    1.7698E+01  4.7259E-03   1.7693E+01  0.000E+00  0.000E+00  0.000E+00  1.33449E+02  3.199E+00  5.640E+00  1.278E-03  3.978E-03  7.595E-04
   1    4   34     1    34    1.7693E+01  4.7248E-03   1.7689E+01  0.000E+00  0.000E+00  0.000E+00  1.33149E+02  3.199E+00  5.639E+00  1.277E-03  3.962E-03  7.741E-04
   1    4   35     1    35    1.7689E+01  4.7238E-03   1.7684E+01  0.000E+00  0.000E+00  0.000E+00  1.32848E+02  3.198E+00  5.639E+00  1.277E-03  3.947E-03  7.877E-04
   1    4   36     1    36    1.7684E+01  4.7228E-03   1.7679E+01  0.000E+00  0.000E+00  0.000E+00  1.32548E+02  3.198E+00  5.638E+00  1.277E-03  3.934E-03  8.000E-04
   1    4   37     1    37    1.7679E+01  4.7217E-03   1.7675E+01  0.000E+00  0.000E+00  0.000E+00  1.32247E+02  3.197E+00  5.638E+00  1.277E-03  3.923E-03  8.104E-04
   1    4   38     1    38    1.7675E+01  4.7207E-03   1.7670E+01  0.000E+00  0.000E+00  0.000E+00  1.31947E+02  3.197E+00  5.637E+00  1.277E-03  3.914E-03  8.183E-04
   1    4   39     1    39    1.7670E+01  4.7196E-03   1.7665E+01  0.000E+00  0.000E+00  0.000E+00  1.31647E+02  3.197E+00  5.637E+00  1.277E-03  3.908E-03  8.226E-04
   1    4   40     1    40    1.7665E+01  4.7186E-03   1.7660E+01  0.000E+00  0.000E+00  0.000E+00  1.31346E+02  3.196E+00  5.636E+00  1.277E-03  3.907E-03  8.228E-04
   1    4   41     1    41    1.7660E+01  4.7176E-03   1.7656E+01  0.000E+00  0.000E+00  0.000E+00  1.31046E+02  3.196E+00  5.636E+00  1.276E-03  3.893E-03  8.360E-04
   1    4   42     1    42    1.7656E+01  4.7165E-03   1.7651E+01  0.000E+00  0.000E+00  0.000E+00  1.30745E+02  3.195E+00  5.635E+00  1.276E-03  3.421E-03  1.307E-03
   1    4   43     1    43    1.7651E+01  4.7155E-03   1.7646E+01  0.000E+00  0.000E+00  0.000E+00  1.30445E+02  3.195E+00  5.635E+00  1.276E-03  2.903E-03  1.824E-03
   1    4   44     1    44    1.7646E+01  4.7144E-03   1.7642E+01  0.000E+00  0.000E+00  0.000E+00  1.30144E+02  3.194E+00  5.634E+00  1.276E-03  2.864E-03  1.862E-03
   1    4   45     1    45    1.7642E+01  4.7134E-03   1.7637E+01  0.000E+00  0.000E+00  0.000E+00  1.29844E+02  3.194E+00  5.634E+00  1.276E-03  2.879E-03  1.846E-03
   1    4   46     1    46    1.7637E+01  4.7124E-03   1.7632E+01  0.000E+00  0.000E+00  0.000E+00  1.29544E+02  3.194E+00  5.633E+00  1.276E-03  2.897E-03  1.826E-03
   1    4   47     1    47    1.7632E+01  4.7113E-03   1.7627E+01  0.000E+00  0.000E+00  0.000E+00  1.29243E+02  3.193E+00  5.633E+00  1.276E-03  2.919E-03  1.804E-03
   1    4   48     1    48    1.7627E+01  4.7103E-03   1.7623E+01  0.000E+00  0.000E+00  0.000E+00  1.28943E+02  3.193E+00  5.632E+00  1.276E-03  2.941E-03  1.780E-03
   1    4   49     1    49    1.7623E+01  4.7092E-03   1.7618E+01  0.000E+00  0.000E+00  0.000E+00  1.28642E+02  3.192E+00  5.632E+00  1.275E-03  2.964E-03  1.757E-03
   1    4   50     1    50    1.7618E+01  4.7082E-03   1.7613E+01  0.000E+00  0.000E+00  0.000E+00  1.28342E+02  3.192E+00  5.631E+00  1.275E-03  2.984E-03  1.736E-03
   1    4   51     1    51    1.7613E+01  4.7072E-03   1.7609E+01  0.000E+00  0.000E+00  0.000E+00  1.28042E+02  3.192E+00  5.631E+00  1.275E-03  3.002E-03  1.717E-03
   1    4   52     1    52    1.7609E+01  4.7061E-03   1.7604E+01  0.000E+00  0.000E+00  0.000E+00  1.27741E+02  3.191E+00  5.630E+00  1.275E-03  3.011E-03  1.707E-03
   1    4   53     1    53    1.7604E+01  4.7051E-03   1.7599E+01  0.000E+00  0.000E+00  0.000E+00  1.27441E+02  3.191E+00  5.630E+00  1.275E-03  3.009E-03  1.707E-03
   1    4   54     1    54    1.7599E+01  4.7040E-03   1.7594E+01  0.000E+00  0.000E+00  0.000E+00  1.27140E+02  3.190E+00  5.629E+00  1.275E-03  2.998E-03  1.717E-03
   1    4   55     1    55    1.7594E+01  4.7030E-03   1.7590E+01  0.000E+00  0.000E+00  0.000E+00  1.26840E+02  3.190E+00  5.629E+00  1.275E-03  2.978E-03  1.737E-03
   1    4   56     1    56    1.7590E+01  4.7020E-03   1.7585E+01  0.000E+00  0.000E+00  0.000E+00  1.26539E+02  3.189E+00  5.628E+00  1.274E-03  2.956E-03  1.757E-03
   1    4   57     1    57    1.7585E+01  4.7009E-03   1.7580E+01  0.000E+00  0.000E+00  0.000E+00  1.26239E+02  3.189E+00  5.628E+00  1.274E-03  2.932E-03  1.781E-03
   1    4   58     1    58    1.7580E+01  4.6999E-03   1.7576E+01  0.000E+00  0.000E+00  0.000E+00  1.25939E+02  3.189E+00  5.627E+00  1.274E-03  2.907E-03  1.804E-03
   1    4   59     1    59    1.7576E+01  4.6989E-03   1.7571E+01  0.000E+00  0.000E+00  0.000E+00  1.25638E+02  3.188E+00  5.627E+00  1.274E-03  2.884E-03  1.826E-03
   1    4   60     1    60    1.7571E+01  4.6978E-03   1.7566E+01  0.000E+00  0.000E+00  0.000E+00  1.25338E+02  3.188E+00  5.626E+00  1.274E-03  2.865E-03  1.844E-03
   1    4   61     1    61    1.7566E+01  4.6968E-03   1.7562E+01  0.000E+00  0.000E+00  0.000E+00  1.25037E+02  3.187E+00  5.626E+00  1.274E-03  3.612E-03  1.097E-03
   1    4   62     1    62    1.7562E+01  4.6957E-03   1.7557E+01  0.000E+00  0.000E+00  0.000E+00  1.24737E+02  3.187E+00  5.625E+00  1.274E-03  3.895E-03  8.122E-04
   1    4   63     1    63    1.7557E+01  4.6947E-03   1.7552E+01  0.000E+00  0.000E+00  0.000E+00  1.24437E+02  3.186E+00  5.625E+00  1.273E-03  3.878E-03  8.284E-04
   1    4   64     1    64    1.7552E+01  4.6937E-03   1.7548E+01  0.000E+00  0.000E+00  0.000E+00  1.24136E+02  3.186E+00  5.624E+00  1.273E-03  3.866E-03  8.386E-04
   1    4   65     1    65    1.7548E+01  4.6926E-03   1.7543E+01  0.000E+00  0.000E+00  0.000E+00  1.23836E+02  3.186E+00  5.624E+00  1.273E-03  3.860E-03  8.442E-04
   1    4   66     1    66    1.7543E+01  4.6916E-03   1.7538E+01  0.000E+00  0.000E+00  0.000E+00  1.23535E+02  3.185E+00  5.623E+00  1.273E-03  3.857E-03  8.460E-04
   1    4   67     1    67    1.7538E+01  4.6906E-03   1.7533E+01  0.000E+00  0.000E+00  0.000E+00  1.23235E+02  3.185E+00  5.623E+00  1.273E-03  3.857E-03  8.446E-04
   1    4   68     1    68    1.7533E+01  4.6895E-03   1.7529E+01  0.000E+00  0.000E+00  0.000E+00  1.22934E+02  3.184E+00  5.622E+00  1.273E-03  3.860E-03  8.405E-04
   1    4   69     1    69    1.7529E+01  4.6885E-03   1.7524E+01  0.000E+00  0.000E+00  0.000E+00  1.22634E+02  3.184E+00  5.622E+00  1.273E-03  3.866E-03  8.343E-04
   1    4   70     1    70    1.7524E+01  4.6875E-03   1.7519E+01  0.000E+00  0.000E+00  0.000E+00  1.22334E+02  3.184E+00  5.621E+00  1.273E-03  3.872E-03  8.266E-04
   1    4   71     1    71    1.7519E+01  4.6864E-03   1.7515E+01  0.000E+00  0.000E+00  0.000E+00  1.22033E+02  3.183E+00  5.621E+00  1.272E-03  3.880E-03  8.178E-04
   1    4   72     1    72    1.7515E+01  4.6854E-03   1.7510E+01  0.000E+00  0.000E+00  0.000E+00  1.21733E+02  3.183E+00  5.620E+00  1.272E-03  3.888E-03  8.083E-04
   1    4   73     1    73    1.7510E+01  4.6843E-03   1.7505E+01  0.000E+00  0.000E+00  0.000E+00  1.21432E+02  3.182E+00  5.620E+00  1.272E-03  3.897E-03  7.986E-04
   1    4   74     1    74    1.7505E+01  4.6833E-03   1.7501E+01  0.000E+00  0.000E+00  0.000E+00  1.21132E+02  3.182E+00  5.619E+00  1.272E-03  3.906E-03  7.888E-04
   1    4   75     1    75    1.7501E+01  4.6823E-03   1.7496E+01  0.000E+00  0.000E+00  0.000E+00  1.20831E+02  3.181E+00  5.619E+00  1.272E-03  3.914E-03  7.793E-04
   1    4   76     1    76    1.7496E+01  4.6812E-03   1.7491E+01  0.000E+00  0.000E+00  0.000E+00  1.20531E+02  3.181E+00  5.618E+00  1.272E-03  3.923E-03  7.701E-04
   1    4   77     1    77    1.7491E+01  4.6802E-03   1.7487E+01  0.000E+00  0.000E+00  0.000E+00  1.20231E+02  3.181E+00  5.618E+00  1.272E-03  3.930E-03  7.613E-04
   1    4   78     1    78    1.7487E+01  4.6792E-03   1.7482E+01  0.000E+00  0.000E+00  0.000E+00  1.19930E+02  3.180E+00  5.617E+00  1.271E-03  3.938E-03  7.530E-04
   1    4   79     1    79    1.7482E+01  4.6781E-03   1.7477E+01  0.000E+00  0.000E+00  0.000E+00  1.19630E+02  3.180E+00  5.617E+00  1.271E-03  3.944E-03  7.453E-04
   1    4   80     1    80    1.7477E+01  4.6771E-03   1.7473E+01  0.000E+00  0.000E+00  0.000E+00  1.19329E+02  3.179E+00  5.616E+00  1.271E-03  3.950E-03  7.381E-04
   1    4   81     1    81    1.7473E+01  4.6761E-03   1.7468E+01  0.000E+00  0.000E+00  0.000E+00  1.19029E+02  3.179E+00  5.616E+00  1.271E-03  3.956E-03  7.312E-04
   1    4   82     1    82    1.7468E+01  4.6750E-03   1.7463E+01  0.000E+00  0.000E+00  0.000E+00  1.18729E+02  3.179E+00  5.615E+00  1.271E-03  3.962E-03  7.248E-04
   1    4   83     1    83    1.7463E+01  4.6740E-03   1.7459E+01  0.000E+00  0.000E+00  0.000E+00  1.18428E+02  3.178E+00  5.615E+00  1.271E-03  3.967E-03  7.185E-04
   1    4   84     1    84    1.7459E+01  4.6730E-03   1.7454E+01  0.000E+00  0.000E+00  0.000E+00  1.18128E+02  3.178E+00  5.614E+00  1.271E-03  3.972E-03  7.123E-04
   1    4   85     1    85    1.7454E+01  4.6719E-03   1.7449E+01  0.000E+00  0.000E+00  0.000E+00  1.17827E+02  3.177E+00  5.614E+00  1.270E-03  3.977E-03  7.061E-04
   1    4   86     1    86    1.7449E+01  4.6709E-03   1.7445E+01  0.000E+00  0.000E+00  0.000E+00  1.17527E+02  3.177E+00  5.613E+00  1.270E-03  3.983E-03  6.997E-04
   1    4   87     1    87    1.7445E+01  4.6699E-03   1.7440E+01  0.000E+00  0.000E+00  0.000E+00  1.17226E+02  3.176E+00  5.613E+00  1.270E-03  3.988E-03  6.929E-04
   1    4   88     1    88    1.7440E+01  4.6688E-03   1.7435E+01  0.000E+00  0.000E+00  0.000E+00  1.16926E+02  3.176E+00  5.612E+00  1.270E-03  3.995E-03  6.855E-04
   1    4   89     1    89    1.7435E+01  4.6678E-03   1.7431E+01  0.000E+00  0.000E+00  0.000E+00  1.16626E+02  3.176E+00  5.612E+00  1.270E-03  4.002E-03  6.776E-04
   1    4   90     1    90    1.7431E+01  4.6668E-03   1.7426E+01  0.000E+00  0.000E+00  0.000E+00  1.16325E+02  3.175E+00  5.611E+00  1.270E-03  4.009E-03  6.688E-04
   1    4   91     1    91    1.7426E+01  4.6657E-03   1.7421E+01  0.000E+00  0.000E+00  0.000E+00  1.16025E+02  3.175E+00  5.611E+00  1.270E-03  4.018E-03  6.592E-04
   1    4   92     1    92    1.7421E+01  4.6647E-03   1.7417E+01  0.000E+00  0.000E+00  0.000E+00  1.15724E+02  3.174E+00  5.610E+00  1.270E-03  4.028E-03  6.486E-04
   1    4   93     1    93    1.7417E+01  4.6637E-03   1.7412E+01  0.000E+00  0.000E+00  0.000E+00  1.15424E+02  3.174E+00  5.610E+00  1.269E-03  4.038E-03  6.370E-04
   1    4   94     1    94    1.7412E+01  4.6627E-03   1.7407E+01  0.000E+00  0.000E+00  0.000E+00  1.15124E+02  3.174E+00  5.609E+00  1.269E-03  4.050E-03  6.244E-04
   1    4   95     1    95    1.7407E+01  4.6616E-03   1.7403E+01  0.000E+00  0.000E+00  0.000E+00  1.14823E+02  3.173E+00  5.609E+00  1.269E-03  4.062E-03  6.108E-04
   1    4   96     1    96    1.7403E+01  4.6606E-03   1.7398E+01  0.000E+00  0.000E+00  0.000E+00  1.14523E+02  3.173E+00  5.608E+00  1.269E-03  4.076E-03  5.964E-04
   1    4   97     1    97    1.7398E+01  4.6596E-03   1.7393E+01  0.000E+00  0.000E+00  0.000E+00  1.14222E+02  3.172E+00  5.608E+00  1.269E-03  4.090E-03  5.813E-04
   1    4   98     1    98    1.7393E+01  4.6585E-03   1.7389E+01  0.000E+00  0.000E+00  0.000E+00  1.13922E+02  3.172E+00  5.607E+00  1.269E-03  4.104E-03  5.656E-04
   1    4   99     1    99    1.7389E+01  4.6575E-03   1.7384E+01  0.000E+00  0.000E+00  0.000E+00  1.13621E+02  3.171E+00  5.607E+00  1.269E-03  4.119E-03  5.498E-04
   1    4  100     1   100    1.7384E+01  4.6565E-03   1.7379E+01  0.000E+00  0.000E+00  0.000E+00  1.13321E+02  3.171E+00  5.606E+00  1.268E-03  4.134E-03  5.337E-04



1
  VOLUMETRIC BUDGET FOR UNSATURATED ZONE BENEATH STREAMS AT END OF TIME STEP    30 STRESS PERIOD   4
  ------------------------------------------------------------------------------------------------

    CUMULATIVE VOLUMES             L**3    RATES FOR THIS TIME STEP         L**3/T
    ------------------                     ------------------------


          STREAM LOSS =      1935675.6250            STREAM LOSS =            0.4708
    CHANGE IN STORAGE =       947992.6250      CHANGE IN STORAGE =        8.9243E-02
       RECHARGE TO GW =       990597.9375         RECHARGE TO GW =            0.3827

             TOTAL IN =      1935675.6250               TOTAL IN =            0.4708

            TOTAL OUT =      1938590.5000              TOTAL OUT =            0.4719

             IN - OUT =        -2914.8750               IN - OUT =       -1.1320E-03

  PERCENT DISCREPANCY =           -0.04      PERCENT DISCREPANCY =            -0.06



1
  VOLUMETRIC BUDGET FOR ENTIRE MODEL AT END OF TIME STEP   30, STRESS PERIOD   4
  ------------------------------------------------------------------------------

     CUMULATIVE VOLUMES      L**3       RATES FOR THIS TIME STEP      L**3/T
     ------------------                 ------------------------

           IN:                                      IN:
           ---                                      ---
             STORAGE     =    30197460.0000               STORAGE     =           1.2750
       CONSTANT HEAD     =           0.0000         CONSTANT HEAD     =           0.0000
               WELLS     =           0.0000                 WELLS     =           0.0000
     HEAD DEP BOUNDS     =           0.0000       HEAD DEP BOUNDS     =           0.0000
      STREAM LEAKAGE     =      990598.0625        STREAM LEAKAGE     =           0.3827

                TOTAL IN =    31188058.0000                  TOTAL IN =           1.6576

          OUT:                                     OUT:
          ----                                     ----
             STORAGE     =      347546.9375               STORAGE     =       4.8586E-02
       CONSTANT HEAD     =           0.0000         CONSTANT HEAD     =           0.0000
               WELLS     =    23639040.0000                 WELLS     =           1.2400
     HEAD DEP BOUNDS     =     7201470.0000       HEAD DEP BOUNDS     =           0.3690
      STREAM LEAKAGE     =           0.0000        STREAM LEAKAGE     =           0.0000

               TOTAL OUT =    31188056.0000                 TOTAL OUT =           1.6576

                IN - OUT =           2.0000                  IN - OUT =      -2.3842E-07

     PERCENT DISCREPANCY =           0.00         PERCENT DISCREPANCY =          -0.00






         TIME SUMMARY AT END OF TIME STEP   30 IN STRESS PERIOD    4
                    SECONDS     MINUTES      HOURS       DAYS        YEARS
                    -----------------------------------------------------------
   TIME STEP LENGTH 2.49961E+05  4166.0      69.434      2.8931     7.92080E-03
 STRESS PERIOD TIME 2.59200E+06  43200.      720.00      30.000     8.21355E-02
         TOTAL TIME 1.03680E+07 1.72800E+05  2880.0      120.00     0.32854    
1
1
                            STRESS PERIOD NO.    5, LENGTH =   2592000.    
                            -----------------------------------------------

                              NUMBER OF TIME STEPS =    30

                               MULTIPLIER FOR DELT =     1.100

                            INITIAL TIME STEP SIZE =   15757.40    

 REUSING NON-PARAMETER WELLS FROM LAST STRESS PERIOD

      1 WELL 

 REUSING NON-PARAMETER GHB CELLS FROM LAST STRESS PERIOD

      7 GHB CELLS



 CLASSIFICATION & COUNT OF STREAM SEGMENTS BASED ON SOURCE OF INFLOW:

                HEADWATER     DIVERSION     RECEIVES TRIBUTARY FLOW
                ---------     ---------     -----------------------
                     1              0               0



                    INPUT DATA FOR EACH STREAM SEGMENT
 ---------------------------------------------------------------------------------------------

 SEGMENT    SEG.     INFLOW   OVERLAND   STREAM    STREAM   ICALC  OUTFLOW  DIVERSION PRIORITY
    NO.    LENGTH     RATE     RUNOFF      ET       PPT.    METH.  TO SEG.  FROM SEG.    NO.

      1  2.000E+04 2.026E+01 0.000E+00 0.000E+00 0.000E+00    2        0        0        0


         STREAMBED PROPERTIES AND STREAM DIMENSIONS

 SEGMENT     BED HYD. COND.      BED THICKNESS     ELEV.-TOP OF BED     WIDTH OF STREAM     DEPTH OF STREAM    STREAM ROUGHNESS
    No.     UPPER     LOWER     UPPER     LOWER     UPPER     LOWER     UPPER     LOWER     UPPER     LOWER   CHANNEL      BANK

     1  3.500E-07 3.500E-07                                                                                 3.000E-02 4.000E-02

  EIGHT POINT CROSS-SECTION DATA FOR SEGMENTS WITH ICALC = 2
    X VALUES X VALUES START FROM LEFT SIDE LOOKING DOWNSTREAM

     SEGMENT NO.        X1        X2        X3        X4        X5        X6        X7        X8
            1      0.000E+00 2.000E+00 4.000E+00 6.000E+00 8.000E+00 1.000E+01 1.200E+01 1.400E+01

    Z VALUES ARE RELATIVE TO STREAMBED ELEVATION

     SEGMENT NO.          Z1        Z2        Z3        Z4        Z5        Z6        Z7        Z8
            1      6.000E+00 4.500E+00 3.500E+00 0.000E+00 3.000E-01 3.500E+00 4.500E+00 6.000E+00



 
 SOLVING FOR HEAD 
                                                   Max.-Head-Change                         Max.-Flux-Residual
  Residual-Control   Outer-Iter.   Inner-Iter.     Column Row Layer    Maximum-Head-Change  Column Row Layer    Maximum-Flux-Residual          L2-NORM 
          0                 1           2            50    3     1       0.2463521342E+00      50    3    1         0.9910870512E-01      0.1526796246E+00
          0                 2           2            50    3     1      -0.2378890805E-01      50    3    1        -0.9958650394E-02      0.1532565042E-01
          0                 3           2            50    3     1       0.2076218561E-02      50    3    1         0.8958932058E-03      0.1392684228E-02
          0                 4           2            50    3     1      -0.1623117651E-03      50    3    1        -0.7176355087E-04      0.1127517320E-03
          0                 5           1            50    3     1       0.1119199066E-04      50    3    1         0.5044895161E-05      0.7990172971E-05
          0                 6           1            50    3     1      -0.6678022136E-06      50    3    1        -0.3056990732E-06      0.4866104757E-06

    ------------------------------------------------
       NWT REQUIRED            6 OUTER ITERATIONS 
       AND A TOTAL OF         10 INNER ITERATIONS.
    ------------------------------------------------

 NO OUTPUT CONTROL FOR STRESS PERIOD    5   TIME STEP    1
 
 SOLVING FOR HEAD 
                                                   Max.-Head-Change                         Max.-Flux-Residual
  Residual-Control   Outer-Iter.   Inner-Iter.     Column Row Layer    Maximum-Head-Change  Column Row Layer    Maximum-Flux-Residual          L2-NORM 
          0                 1           2            50    3     1       0.1547966502E+00      50    3    1         0.5127882214E-01      0.9696871296E-01
          0                 2           2            50    3     1      -0.1461156594E-01      50    3    1        -0.5152748195E-02      0.9520615389E-02
          0                 3           2            50    3     1       0.1251902589E-02      50    3    1         0.4635328322E-03      0.8671723655E-03
          0                 4           1            50    3     1      -0.9648160728E-04      50    3    1        -0.3713041038E-04      0.7080418893E-04
          0                 5           1            50    3     1       0.6583966694E-05      50    3    1         0.2610192482E-05      0.5057026139E-05
          0                 6           1            50    3     1      -0.3901097085E-06      50    3    1        -0.1581653191E-06      0.3096337266E-06

    ------------------------------------------------
       NWT REQUIRED            6 OUTER ITERATIONS 
       AND A TOTAL OF          9 INNER ITERATIONS.
    ------------------------------------------------

 NO OUTPUT CONTROL FOR STRESS PERIOD    5   TIME STEP    2
 
 SOLVING FOR HEAD 
                                                   Max.-Head-Change                         Max.-Flux-Residual
  Residual-Control   Outer-Iter.   Inner-Iter.     Column Row Layer    Maximum-Head-Change  Column Row Layer    Maximum-Flux-Residual          L2-NORM 
          0                 1           2            50    3     1       0.1068325917E+00      50    3    1         0.2936546897E-01      0.7787122610E-01
          0                 2           2            50    3     1      -0.9925835110E-02      50    3    1        -0.2947782473E-02      0.7551159784E-02
          0                 3           2            50    3     1       0.8390258922E-03      50    3    1         0.2651990194E-03      0.6900361838E-03
          0                 4           1            50    3     1      -0.6392885307E-04      50    3    1        -0.2124312371E-04      0.5673552710E-04
          0                 5           1            50    3     1       0.4323501952E-05      50    3    1         0.1493333759E-05      0.4077025920E-05
          0                 6           1            50    3     1      -0.2544966710E-06      50    3    1        -0.9048797089E-07      0.2506440403E-06

    ------------------------------------------------
       NWT REQUIRED            6 OUTER ITERATIONS 
       AND A TOTAL OF          9 INNER ITERATIONS.
    ------------------------------------------------

 NO OUTPUT CONTROL FOR STRESS PERIOD    5   TIME STEP    3
 
 SOLVING FOR HEAD 
                                                   Max.-Head-Change                         Max.-Flux-Residual
  Residual-Control   Outer-Iter.   Inner-Iter.     Column Row Layer    Maximum-Head-Change  Column Row Layer    Maximum-Flux-Residual          L2-NORM 
          0                 1           2            50    3     1       0.7973906671E-01      50    3    1         0.1843469078E-01      0.7033148449E-01
          0                 2           2            50    3     1      -0.7333914962E-02      50    3    1        -0.1848737946E-02      0.6812155646E-02
          0                 3           2            50    3     1       0.6141832609E-03      50    3    1         0.1663376117E-03      0.6252204009E-03
          0                 4           1            50    3     1      -0.4639714986E-04      50    3    1        -0.1332396826E-04      0.5168327557E-04
          0                 5           1            50    3     1       0.3114862285E-05      50    3    1         0.9366251597E-06      0.3730686690E-05
          0                 6           1            50    3     1      -0.1822876282E-06      50    3    1        -0.5675352810E-07      0.2300652160E-06

    ------------------------------------------------
       NWT REQUIRED            6 OUTER ITERATIONS 
       AND A TOTAL OF          9 INNER ITERATIONS.
    ------------------------------------------------

 NO OUTPUT CONTROL FOR STRESS PERIOD    5   TIME STEP    4
 
 SOLVING FOR HEAD 
                                                   Max.-Head-Change                         Max.-Flux-Residual
  Residual-Control   Outer-Iter.   Inner-Iter.     Column Row Layer    Maximum-Head-Change  Column Row Layer    Maximum-Flux-Residual          L2-NORM 
          0                 1           2            50    3     1       0.6349745688E-01      50    3    1         0.1253305489E-01      0.6672331195E-01
          0                 2           2            50    3     1      -0.5802835549E-02      50    3    1        -0.1255999219E-02      0.6471959368E-02
          0                 3           2            50    3     1       0.4828298835E-03      50    3    1         0.1130147169E-03      0.5961794207E-03
          0                 4           1            50    2     1      -0.3751545411E-04      50    3    1        -0.9052643009E-05      0.4949831918E-04
          0                 5           1            50    2     1       0.2581511305E-05      50    3    1         0.6363532599E-06      0.3587069859E-05
          0                 6           1            50    2     1      -0.1536910992E-06      50    3    1        -0.3855808473E-07      0.2218754370E-06

    ------------------------------------------------
       NWT REQUIRED            6 OUTER ITERATIONS 
       AND A TOTAL OF          9 INNER ITERATIONS.
    ------------------------------------------------

 NO OUTPUT CONTROL FOR STRESS PERIOD    5   TIME STEP    5
 
 SOLVING FOR HEAD 
                                                   Max.-Head-Change                         Max.-Flux-Residual
  Residual-Control   Outer-Iter.   Inner-Iter.     Column Row Layer    Maximum-Head-Change  Column Row Layer    Maximum-Flux-Residual          L2-NORM 
          0                 1           2            50    3     1       0.5316891802E-01      50    3    1         0.9073095224E-02      0.6464912945E-01
          0                 2           2            50    2     1      -0.4977465437E-02      50    3    1        -0.9088203922E-03      0.6278265140E-02
          0                 3           2            50    2     1       0.4340161135E-03      50    3    1         0.8177967978E-04      0.5799945179E-03
          0                 4           1            50    2     1      -0.3384656704E-04      50    3    1        -0.6550641316E-05      0.4834276602E-04
          0                 5           1            50    2     1       0.2326513466E-05      50    3    1         0.4604616137E-06      0.3516996535E-05
          0                 6           1            50    2     1      -0.1383705430E-06      50    3    1        -0.2789952092E-07      0.2182483975E-06

    ------------------------------------------------
       NWT REQUIRED            6 OUTER ITERATIONS 
       AND A TOTAL OF          9 INNER ITERATIONS.
    ------------------------------------------------

 NO OUTPUT CONTROL FOR STRESS PERIOD    5   TIME STEP    6
 
 SOLVING FOR HEAD 
                                                   Max.-Head-Change                         Max.-Flux-Residual
  Residual-Control   Outer-Iter.   Inner-Iter.     Column Row Layer    Maximum-Head-Change  Column Row Layer    Maximum-Flux-Residual          L2-NORM 
          0                 1           2            50    2     1       0.4701447382E-01      50    3    1         0.6903480570E-02      0.6325759620E-01
          0                 2           2            50    2     1      -0.4528418261E-02      50    3    1        -0.6912775476E-03      0.6150720835E-02
          0                 3           2            50    1     1       0.3957069556E-03      50    3    1         0.6220628326E-04      0.5697667566E-03
          0                 4           1            50    1     1      -0.3115556250E-04      50    3    1        -0.4982775900E-05      0.4767284915E-04
          0                 5           1            50    1     1       0.2156792107E-05      50    3    1         0.3502381016E-06      0.3481883456E-05
          0                 6           1            50    1     1      -0.1289167131E-06      50    3    1        -0.2122019538E-07      0.2167976869E-06

    ------------------------------------------------
       NWT REQUIRED            6 OUTER ITERATIONS 
       AND A TOTAL OF          9 INNER ITERATIONS.
    ------------------------------------------------

 NO OUTPUT CONTROL FOR STRESS PERIOD    5   TIME STEP    7
 
 SOLVING FOR HEAD 
                                                   Max.-Head-Change                         Max.-Flux-Residual
  Residual-Control   Outer-Iter.   Inner-Iter.     Column Row Layer    Maximum-Head-Change  Column Row Layer    Maximum-Flux-Residual          L2-NORM 
          0                 1           2            50    1     1       0.4330619681E-01      50    2    1         0.5526286538E-02      0.6223912932E-01
          0                 2           2            50    1     1      -0.4234582520E-02      50    2    1        -0.5530606676E-03      0.6051700877E-02
          0                 3           2            50    1     1       0.3733583948E-03      50    2    1         0.4977024783E-04      0.5616489088E-03
          0                 4           1            50    1     1      -0.2936508970E-04      50    2    1        -0.3986645160E-05      0.4716362809E-04
          0                 5           1            50    1     1       0.2030833845E-05      67    4    1         0.2875566771E-06      0.3458973468E-05
          0                 6           1            50    1     1      -0.1212835391E-06      67    4    1        -0.1973407748E-07      0.2161966115E-06

    ------------------------------------------------
       NWT REQUIRED            6 OUTER ITERATIONS 
       AND A TOTAL OF          9 INNER ITERATIONS.
    ------------------------------------------------

 NO OUTPUT CONTROL FOR STRESS PERIOD    5   TIME STEP    8
 
 SOLVING FOR HEAD 
                                                   Max.-Head-Change                         Max.-Flux-Residual
  Residual-Control   Outer-Iter.   Inner-Iter.     Column Row Layer    Maximum-Head-Change  Column Row Layer    Maximum-Flux-Residual          L2-NORM 
          0                 1           2            67    1     1      -0.4315583237E-01      50    1    1         0.4621284080E-02      0.6144683183E-01
          0                 2           2            66    1     1       0.4091248196E-02      50    1    1        -0.4624619294E-03      0.5976609933E-02
          0                 3           2            66    1     1      -0.3522383788E-03      50    1    1         0.4161790150E-04      0.5557989978E-03
          0                 4           1            50    1     1      -0.2750440062E-04      50    1    1        -0.3333626521E-05      0.4684198205E-04
          0                 5           1            50    1     1       0.1899632396E-05      67    4    1         0.2970739956E-06      0.3449624413E-05
          0                 6           1            50    1     1      -0.1133172669E-06      67    4    1        -0.2054775194E-07      0.2164523847E-06

    ------------------------------------------------
       NWT REQUIRED            6 OUTER ITERATIONS 
       AND A TOTAL OF          9 INNER ITERATIONS.
    ------------------------------------------------

 NO OUTPUT CONTROL FOR STRESS PERIOD    5   TIME STEP    9
 
 SOLVING FOR HEAD 
                                                   Max.-Head-Change                         Max.-Flux-Residual
  Residual-Control   Outer-Iter.   Inner-Iter.     Column Row Layer    Maximum-Head-Change  Column Row Layer    Maximum-Flux-Residual          L2-NORM 
          0                 1           2            67    1     1      -0.4727957719E-01      67    1    1        -0.4198586130E-02      0.6078225484E-01
          0                 2           2            66    1     1       0.4465290339E-02      67    1    1         0.4198408389E-03      0.5912539709E-02
          0                 3           2            66    1     1      -0.3831184502E-03      67    1    1        -0.3778685054E-04      0.5507075960E-03
          0                 4           1            66    1     1       0.2950106713E-04      67    4    1        -0.3405557116E-05      0.4657006661E-04
          0                 5           1            66    1     1      -0.2008498126E-05      67    4    1         0.3061756182E-06      0.3443811840E-05
          0                 6           1            66    1     1       0.1186670693E-06      67    4    1        -0.2133869614E-07      0.2169755225E-06

    ------------------------------------------------
       NWT REQUIRED            6 OUTER ITERATIONS 
       AND A TOTAL OF          9 INNER ITERATIONS.
    ------------------------------------------------

 NO OUTPUT CONTROL FOR STRESS PERIOD    5   TIME STEP   10
 
 SOLVING FOR HEAD 
                                                   Max.-Head-Change                         Max.-Flux-Residual
  Residual-Control   Outer-Iter.   Inner-Iter.     Column Row Layer    Maximum-Head-Change  Column Row Layer    Maximum-Flux-Residual          L2-NORM 
          0                 1           2            67    1     1      -0.5177886267E-01      67    1    1        -0.4182822960E-02      0.6019460886E-01
          0                 2           2            67    1     1       0.4873626608E-02      67    1    1         0.4182613666E-03      0.5856252102E-02
          0                 3           2            66    1     1      -0.4164919266E-03      67    1    1        -0.3764488887E-04      0.5464428199E-03
          0                 4           1            66    1     1       0.3195675471E-04      67    4    1        -0.3474118461E-05      0.4637212247E-04
          0                 5           1            66    1     1      -0.2168112993E-05      67    4    1         0.3148120840E-06      0.3443434293E-05
          0                 6           1            66    1     1       0.1277039681E-06      67    4    1        -0.2210140337E-07      0.2178419611E-06

    ------------------------------------------------
       NWT REQUIRED            6 OUTER ITERATIONS 
       AND A TOTAL OF          9 INNER ITERATIONS.
    ------------------------------------------------

 NO OUTPUT CONTROL FOR STRESS PERIOD    5   TIME STEP   11
 
 SOLVING FOR HEAD 
                                                   Max.-Head-Change                         Max.-Flux-Residual
  Residual-Control   Outer-Iter.   Inner-Iter.     Column Row Layer    Maximum-Head-Change  Column Row Layer    Maximum-Flux-Residual          L2-NORM 
          0                 1           2            67    1     1      -0.5668422135E-01      67    1    1        -0.4165629677E-02      0.5960886372E-01
          0                 2           2            67    1     1       0.5317724995E-02      67    1    1         0.4165383916E-03      0.5805442300E-02
          0                 3           2            67    1     1      -0.4526951605E-03      67    1    1        -0.3749003586E-04      0.5428104811E-03
          0                 4           1            66    1     1       0.3459333363E-04      67    4    1        -0.3537301499E-05      0.4622067937E-04
          0                 5           1            66    1     1      -0.2338078042E-05      67    4    1         0.3229352288E-06      0.3445681433E-05
          0                 6           1            66    1     1       0.1372391290E-06      67    4    1        -0.2283024614E-07      0.2188471734E-06

    ------------------------------------------------
       NWT REQUIRED            6 OUTER ITERATIONS 
       AND A TOTAL OF          9 INNER ITERATIONS.
    ------------------------------------------------

 NO OUTPUT CONTROL FOR STRESS PERIOD    5   TIME STEP   12
 
 SOLVING FOR HEAD 
                                                   Max.-Head-Change                         Max.-Flux-Residual
  Residual-Control   Outer-Iter.   Inner-Iter.     Column Row Layer    Maximum-Head-Change  Column Row Layer    Maximum-Flux-Residual          L2-NORM 
          0                 1           2            67    1     1      -0.6202721446E-01      67    1    1        -0.4146882757E-02      0.5903602630E-01
          0                 2           2            67    1     1       0.5799900045E-02      67    1    1         0.4146594613E-03      0.5748973088E-02
          0                 3           2            67    1     1      -0.4919240728E-03      67    1    1        -0.3732117299E-04      0.5382579522E-03
          0                 4           1            67    7     1       0.3743170074E-04      67    4    1        -0.3594806543E-05      0.4597906496E-04
          0                 5           1            66    1     1      -0.2518869413E-05      67    4    1         0.3304911758E-06      0.3441157627E-05
          0                 6           1            66    1     1       0.1472797510E-06      67    4    1        -0.2351906048E-07      0.2194596545E-06

    ------------------------------------------------
       NWT REQUIRED            6 OUTER ITERATIONS 
       AND A TOTAL OF          9 INNER ITERATIONS.
    ------------------------------------------------

 NO OUTPUT CONTROL FOR STRESS PERIOD    5   TIME STEP   13
 
 SOLVING FOR HEAD 
                                                   Max.-Head-Change                         Max.-Flux-Residual
  Residual-Control   Outer-Iter.   Inner-Iter.     Column Row Layer    Maximum-Head-Change  Column Row Layer    Maximum-Flux-Residual          L2-NORM 
          0                 1           2            67    1     1      -0.6782624265E-01      67    1    1        -0.4126404159E-02      0.5844348974E-01
          0                 2           2            67    1     1       0.6321552435E-02      67    1    1         0.4126060107E-03      0.5701908554E-02
          0                 3           2            67    1     1      -0.5341857108E-03      67    1    1        -0.3713663700E-04      0.5362485287E-03
          0                 4           1            67    7     1       0.4048484625E-04      79    4    1        -0.3708216241E-05      0.4601695076E-04
          0                 5           1            67    7     1      -0.2711212715E-05      69    4    1         0.3384987437E-06      0.3456133012E-05
          0                 6           1            66    1     1       0.1578259087E-06      69    4    1        -0.2416714651E-07      0.2210335453E-06

    ------------------------------------------------
       NWT REQUIRED            6 OUTER ITERATIONS 
       AND A TOTAL OF          9 INNER ITERATIONS.
    ------------------------------------------------

 NO OUTPUT CONTROL FOR STRESS PERIOD    5   TIME STEP   14
 
 SOLVING FOR HEAD 
                                                   Max.-Head-Change                         Max.-Flux-Residual
  Residual-Control   Outer-Iter.   Inner-Iter.     Column Row Layer    Maximum-Head-Change  Column Row Layer    Maximum-Flux-Residual          L2-NORM 
          0                 1           2            67    1     1      -0.7396752797E-01      67    1    1        -0.4103132269E-02      0.5782475510E-01
          0                 2           2            67    1     1       0.6869020655E-02      67    1    1         0.4102655085E-03      0.5645927324E-02
          0                 3           2            67    1     1      -0.5781704315E-03      67    1    1        -0.3692635881E-04      0.5327545574E-03
          0                 4           1            67    7     1       0.4363774353E-04      78    4    1        -0.3966165227E-05      0.4590984295E-04
          0                 5           1            66    1     1      -0.2909332443E-05      68    4    1         0.3505135879E-06      0.3460635807E-05
          0                 6           1            66    1     1       0.1686190542E-06      68    4    1        -0.2511758623E-07      0.2220272351E-06

    ------------------------------------------------
       NWT REQUIRED            6 OUTER ITERATIONS 
       AND A TOTAL OF          9 INNER ITERATIONS.
    ------------------------------------------------

 NO OUTPUT CONTROL FOR STRESS PERIOD    5   TIME STEP   15
 
 SOLVING FOR HEAD 
                                                   Max.-Head-Change                         Max.-Flux-Residual
  Residual-Control   Outer-Iter.   Inner-Iter.     Column Row Layer    Maximum-Head-Change  Column Row Layer    Maximum-Flux-Residual          L2-NORM 
          0                 1           2            67    1     1      -0.8056329115E-01      67    1    1        -0.4069124865E-02      0.5719737813E-01
          0                 2           2            67    1     1       0.7457545713E-02      67    1    1         0.4068549955E-03      0.5587042563E-02
          0                 3           2            67    1     1      -0.6253439848E-03      67    1    1        -0.3661975919E-04      0.5285765389E-03
          0                 4           1            67    7     1       0.4699731714E-04      77    4    1        -0.4196895194E-05      0.4572419979E-04
          0                 5           1            67    7     1      -0.3116231702E-05      77    4    1         0.3593955817E-06      0.3458724004E-05
          0                 6           1            66    1     1       0.1796424449E-06      66    4    1        -0.2547359301E-07      0.2226374227E-06

    ------------------------------------------------
       NWT REQUIRED            6 OUTER ITERATIONS 
       AND A TOTAL OF          9 INNER ITERATIONS.
    ------------------------------------------------

 NO OUTPUT CONTROL FOR STRESS PERIOD    5   TIME STEP   16
 
 SOLVING FOR HEAD 
                                                   Max.-Head-Change                         Max.-Flux-Residual
  Residual-Control   Outer-Iter.   Inner-Iter.     Column Row Layer    Maximum-Head-Change  Column Row Layer    Maximum-Flux-Residual          L2-NORM 
          0                 1           2            67    1     1      -0.8783890920E-01      67    1    1        -0.4030165322E-02      0.5657149479E-01
          0                 2           2            67    1     1       0.8104172598E-02      67    1    1         0.4029578601E-03      0.5526833819E-02
          0                 3           2            67    1     1      -0.6768734146E-03      76    4    1         0.3741131457E-04      0.5243761596E-03
          0                 4           1            67    7     1       0.5063802523E-04      76    4    1        -0.4395444694E-05      0.4554792480E-04
          0                 5           1            67    7     1      -0.3337511255E-05      76    4    1         0.3809737414E-06      0.3457020992E-05
          0                 6           1            67    7     1       0.1911797800E-06      76    4    1        -0.2600975080E-07      0.2231908785E-06

    ------------------------------------------------
       NWT REQUIRED            6 OUTER ITERATIONS 
       AND A TOTAL OF          9 INNER ITERATIONS.
    ------------------------------------------------

 NO OUTPUT CONTROL FOR STRESS PERIOD    5   TIME STEP   17
 
 SOLVING FOR HEAD 
                                                   Max.-Head-Change                         Max.-Flux-Residual
  Residual-Control   Outer-Iter.   Inner-Iter.     Column Row Layer    Maximum-Head-Change  Column Row Layer    Maximum-Flux-Residual          L2-NORM 
          0                 1           2            67    1     1      -0.9578288427E-01      67    1    1        -0.3995777415E-02      0.5593141287E-01
          0                 2           2            67    1     1       0.8810293999E-02      67    1    1         0.3995138217E-03      0.5466449568E-02
          0                 3           2            67    1     1      -0.7331117861E-03      75    4    1         0.3804144162E-04      0.5202755258E-03
          0                 4           1            67    1     1       0.5460243046E-04      75    4    1        -0.4561175544E-05      0.4538260919E-04
          0                 5           1            67    7     1      -0.3575933311E-05      75    4    1         0.3992566278E-06      0.3455033519E-05
          0                 6           1            67    7     1       0.2035071415E-06      75    4    1        -0.2742485705E-07      0.2236441241E-06

    ------------------------------------------------
       NWT REQUIRED            6 OUTER ITERATIONS 
       AND A TOTAL OF          9 INNER ITERATIONS.
    ------------------------------------------------

 NO OUTPUT CONTROL FOR STRESS PERIOD    5   TIME STEP   18
 
 SOLVING FOR HEAD 
                                                   Max.-Head-Change                         Max.-Flux-Residual
  Residual-Control   Outer-Iter.   Inner-Iter.     Column Row Layer    Maximum-Head-Change  Column Row Layer    Maximum-Flux-Residual          L2-NORM 
          0                 1           2            67    1     1      -0.1043857879E+00      67    1    1        -0.3962054740E-02      0.5524424579E-01
          0                 2           2            67    1     1       0.9574265204E-02      67    1    1         0.3961326401E-03      0.5410670941E-02
          0                 3           2            67    1     1      -0.7938407110E-03      75    4    1         0.4167386416E-04      0.5168379363E-03
          0                 4           1            67    1     1       0.5886676117E-04      75    4    1        -0.4881971449E-05      0.4525435277E-04
          0                 5           1            67    1     1      -0.3828569176E-05      75    4    1         0.4227975339E-06      0.3452275808E-05
          0                 6           1            67    7     1       0.2163220863E-06      75    4    1        -0.2883840722E-07      0.2238406158E-06

    ------------------------------------------------
       NWT REQUIRED            6 OUTER ITERATIONS 
       AND A TOTAL OF          9 INNER ITERATIONS.
    ------------------------------------------------

 NO OUTPUT CONTROL FOR STRESS PERIOD    5   TIME STEP   19
 
 SOLVING FOR HEAD 
                                                   Max.-Head-Change                         Max.-Flux-Residual
  Residual-Control   Outer-Iter.   Inner-Iter.     Column Row Layer    Maximum-Head-Change  Column Row Layer    Maximum-Flux-Residual          L2-NORM 
          0                 1           2            68    1     1      -0.1136714141E+00      67    1    1        -0.3926312687E-02      0.5452044562E-01
          0                 2           2            67    1     1       0.1039633625E-01      67    1    1         0.3925469015E-03      0.5344293568E-02
          0                 3           2            67    1     1      -0.8590314498E-03      74    4    1         0.4429410156E-04      0.5122109459E-03
          0                 4           1            67    1     1       0.6342432318E-04      74    4    1        -0.5168762755E-05      0.4503345572E-04
          0                 5           1            67    1     1      -0.4093905020E-05      74    4    1         0.4501684856E-06      0.3442408434E-05
          0                 6           1            67    7     1       0.2295182142E-06      74    4    1        -0.3090620737E-07      0.2235381352E-06

    ------------------------------------------------
       NWT REQUIRED            6 OUTER ITERATIONS 
       AND A TOTAL OF          9 INNER ITERATIONS.
    ------------------------------------------------

 NO OUTPUT CONTROL FOR STRESS PERIOD    5   TIME STEP   20
 
 SOLVING FOR HEAD 
                                                   Max.-Head-Change                         Max.-Flux-Residual
  Residual-Control   Outer-Iter.   Inner-Iter.     Column Row Layer    Maximum-Head-Change  Column Row Layer    Maximum-Flux-Residual          L2-NORM 
          0                 1           2            68    1     1      -0.1237862127E+00      68    1    1        -0.3887958605E-02      0.5380829551E-01
          0                 2           2            68    7     1       0.1128554111E-01      68    7    1         0.3887065274E-03      0.5270698909E-02
          0                 3           2            68    7     1      -0.9287246371E-03      73    4    1         0.4541995942E-04      0.5066635797E-03
          0                 4           1            67    7     1       0.6827263680E-04      73    4    1        -0.5352842198E-05      0.4473899416E-04
          0                 5           1            67    7     1      -0.4370338164E-05      73    4    1         0.4660628719E-06      0.3425666491E-05
          0                 6           1            67    7     1       0.2430147391E-06      73    4    1        -0.3191837550E-07      0.2227081285E-06

    ------------------------------------------------
       NWT REQUIRED            6 OUTER ITERATIONS 
       AND A TOTAL OF          9 INNER ITERATIONS.
    ------------------------------------------------

 NO OUTPUT CONTROL FOR STRESS PERIOD    5   TIME STEP   21
 
 SOLVING FOR HEAD 
                                                   Max.-Head-Change                         Max.-Flux-Residual
  Residual-Control   Outer-Iter.   Inner-Iter.     Column Row Layer    Maximum-Head-Change  Column Row Layer    Maximum-Flux-Residual          L2-NORM 
          0                 1           2            68    1     1      -0.1345964338E+00      68    1    1        -0.3849891034E-02      0.5317379421E-01
          0                 2           2            68    7     1       0.1223507087E-01      68    7    1         0.3848831319E-03      0.5206278882E-02
          0                 3           2            68    7     1      -0.1003366926E-02      72    4    1         0.4604228825E-04      0.5021982076E-03
          0                 4           1            67    7     1       0.7339324961E-04      72    4    1        -0.5492032866E-05      0.4454983577E-04
          0                 5           1            67    7     1      -0.4654563534E-05      72    4    1         0.4858514266E-06      0.3415365763E-05
          0                 6           1            67    7     1       0.2564907277E-06      72    4    1        -0.3370580259E-07      0.2221580082E-06

    ------------------------------------------------
       NWT REQUIRED            6 OUTER ITERATIONS 
       AND A TOTAL OF          9 INNER ITERATIONS.
    ------------------------------------------------

 NO OUTPUT CONTROL FOR STRESS PERIOD    5   TIME STEP   22
 
 SOLVING FOR HEAD 
                                                   Max.-Head-Change                         Max.-Flux-Residual
  Residual-Control   Outer-Iter.   Inner-Iter.     Column Row Layer    Maximum-Head-Change  Column Row Layer    Maximum-Flux-Residual          L2-NORM 
          0                 1           3            68    1     1      -0.1460553866E+00      68    1    1        -0.3806481490E-02      0.5255606839E-01
          0                 2           2            68    1     1       0.1322682455E-01      68    1    1         0.3805206433E-03      0.5147014936E-02
          0                 3           2            68    7     1      -0.1080306457E-02      71    4    1         0.4617034311E-04      0.4981076334E-03
          0                 4           1            67    7     1       0.7871708998E-04      71    4    1        -0.5580062130E-05      0.4436960036E-04
          0                 5           1            67    1     1      -0.4937050790E-05      71    4    1         0.4906617619E-06      0.3400842284E-05
          0                 6           1            67    7     1       0.2692865551E-06      71    4    1        -0.3375294710E-07      0.2210955507E-06

    ------------------------------------------------
       NWT REQUIRED            6 OUTER ITERATIONS 
       AND A TOTAL OF         10 INNER ITERATIONS.
    ------------------------------------------------

 NO OUTPUT CONTROL FOR STRESS PERIOD    5   TIME STEP   23
 
 SOLVING FOR HEAD 
                                                   Max.-Head-Change                         Max.-Flux-Residual
  Residual-Control   Outer-Iter.   Inner-Iter.     Column Row Layer    Maximum-Head-Change  Column Row Layer    Maximum-Flux-Residual          L2-NORM 
          0                 1           3            68    1     1      -0.1580832354E+00      68    1    1        -0.3756230561E-02      0.5179577834E-01
          0                 2           2            68    1     1       0.1423240493E-01      68    1    1         0.3754678475E-03      0.5083591254E-02
          0                 3           2            67    7     1      -0.1159249678E-02      71    4    1         0.4677533269E-04      0.4941362980E-03
          0                 4           1            67    1     1       0.8406655177E-04      70    4    1        -0.5610513618E-05      0.4420856933E-04
          0                 5           1            67    1     1      -0.5202875523E-05      70    4    1         0.5047798055E-06      0.3385146653E-05
          0                 6           1            67    1     1       0.2803142472E-06      70    4    1        -0.3536071702E-07      0.2197857260E-06

    ------------------------------------------------
       NWT REQUIRED            6 OUTER ITERATIONS 
       AND A TOTAL OF         10 INNER ITERATIONS.
    ------------------------------------------------

 NO OUTPUT CONTROL FOR STRESS PERIOD    5   TIME STEP   24
 
 SOLVING FOR HEAD 
                                                   Max.-Head-Change                         Max.-Flux-Residual
  Residual-Control   Outer-Iter.   Inner-Iter.     Column Row Layer    Maximum-Head-Change  Column Row Layer    Maximum-Flux-Residual          L2-NORM 
          0                 1           3            68    1     1      -0.1705818269E+00      68    1    1        -0.3697787693E-02      0.5102535933E-01
          0                 2           2            67    1     1       0.1526150940E-01      68    1    1         0.3695890327E-03      0.5012552812E-02
          0                 3           2            67    7     1      -0.1235948341E-02      70    4    1         0.4815161092E-04      0.4890611342E-03
          0                 4           1            67    1     1       0.8904898581E-04      70    4    1        -0.5724042147E-05      0.4393826477E-04
          0                 5           1            67    1     1      -0.5421651485E-05      70    4    1         0.5075574876E-06      0.3357670726E-05
          0                 6           1            67    1     1       0.2885624040E-06      70    4    1        -0.3514838909E-07      0.2176491767E-06

    ------------------------------------------------
       NWT REQUIRED            6 OUTER ITERATIONS 
       AND A TOTAL OF         10 INNER ITERATIONS.
    ------------------------------------------------

 NO OUTPUT CONTROL FOR STRESS PERIOD    5   TIME STEP   25
 
 SOLVING FOR HEAD 
                                                   Max.-Head-Change                         Max.-Flux-Residual
  Residual-Control   Outer-Iter.   Inner-Iter.     Column Row Layer    Maximum-Head-Change  Column Row Layer    Maximum-Flux-Residual          L2-NORM 
          0                 1           3            68    1     1      -0.1834387512E+00      68    1    1        -0.3630430005E-02      0.5024405697E-01
          0                 2           2            67    7     1       0.1637948804E-01      68    1    1         0.3628105770E-03      0.4937364563E-02
          0                 3           2            67    7     1      -0.1322536740E-02      69    4    1         0.4942385982E-04      0.4825214753E-03
          0                 4           1            67    1     1       0.9485188575E-04      69    4    1        -0.5892616624E-05      0.4346681208E-04
          0                 5           1            67    1     1      -0.5672291247E-05      69    4    1         0.5086403725E-06      0.3307598867E-05
          0                 6           1            67    1     1       0.2976546387E-06      69    4    1        -0.3442891483E-07      0.2137904254E-06

    ------------------------------------------------
       NWT REQUIRED            6 OUTER ITERATIONS 
       AND A TOTAL OF         10 INNER ITERATIONS.
    ------------------------------------------------

 NO OUTPUT CONTROL FOR STRESS PERIOD    5   TIME STEP   26
 
 SOLVING FOR HEAD 
                                                   Max.-Head-Change                         Max.-Flux-Residual
  Residual-Control   Outer-Iter.   Inner-Iter.     Column Row Layer    Maximum-Head-Change  Column Row Layer    Maximum-Flux-Residual          L2-NORM 
          0                 1           3            69    1     1      -0.1966946731E+00      68    1    1        -0.3549831965E-02      0.4944189198E-01
          0                 2           2            67    1     1       0.1736818861E-01      68    1    1         0.3547077838E-03      0.4864501026E-02
          0                 3           2            67    1     1      -0.1388410470E-02      68    4    1         0.4831162043E-04      0.4776052823E-03
          0                 4           1            66    1     1       0.9909882059E-04      68    4    1        -0.5800931412E-05      0.4322533343E-04
          0                 5           1            66    1     1      -0.5806005315E-05      68    4    1         0.5204316906E-06      0.3275295500E-05
          0                 6           1            65    1     1       0.3025417179E-06      68    4    1        -0.3628387191E-07      0.2109635340E-06

    ------------------------------------------------
       NWT REQUIRED            6 OUTER ITERATIONS 
       AND A TOTAL OF         10 INNER ITERATIONS.
    ------------------------------------------------

 NO OUTPUT CONTROL FOR STRESS PERIOD    5   TIME STEP   27
 
 SOLVING FOR HEAD 
                                                   Max.-Head-Change                         Max.-Flux-Residual
  Residual-Control   Outer-Iter.   Inner-Iter.     Column Row Layer    Maximum-Head-Change  Column Row Layer    Maximum-Flux-Residual          L2-NORM 
          0                 1           3            69    7     1      -0.2124507634E+00      69    1    1        -0.3466829456E-02      0.4863917555E-01
          0                 2           2            69    7     1       0.1834907208E-01      69    1    1         0.3464478606E-03      0.4802970543E-02
          0                 3           2            66    7     1      -0.1451512170E-02      67    4    1         0.4632530860E-04      0.4746682253E-03
          0                 4           1            66    1     1       0.1025432327E-03      67    4    1        -0.5608776874E-05      0.4318569472E-04
          0                 5           1            65    1     1      -0.5901031639E-05      68    4    1         0.4862980312E-06      0.3252200154E-05
          0                 6           1            65    1     1       0.3058247577E-06      68    4    1        -0.3392856485E-07      0.2085150616E-06

    ------------------------------------------------
       NWT REQUIRED            6 OUTER ITERATIONS 
       AND A TOTAL OF         10 INNER ITERATIONS.
    ------------------------------------------------

 NO OUTPUT CONTROL FOR STRESS PERIOD    5   TIME STEP   28
 
 SOLVING FOR HEAD 
                                                   Max.-Head-Change                         Max.-Flux-Residual
  Residual-Control   Outer-Iter.   Inner-Iter.     Column Row Layer    Maximum-Head-Change  Column Row Layer    Maximum-Flux-Residual          L2-NORM 
          0                 1           3            70    7     1      -0.2294808735E+00      69    1    1        -0.3405837376E-02      0.4772572058E-01
          0                 2           3            69    7     1       0.1972131192E-01      69    1    1         0.3403228472E-03      0.4710745345E-02
          0                 3           2            69    7     1      -0.1526766210E-02      66    4    1         0.4388070027E-04      0.4678164458E-03
          0                 4           1            65    1     1       0.1049687435E-03      66    4    1        -0.5348273067E-05      0.4278719606E-04
          0                 5           1            65    1     1      -0.5889637722E-05      66    4    1         0.4845327268E-06      0.3201239470E-05
          0                 6           1            65    1     1       0.3012424815E-06      66    4    1        -0.3383438241E-07      0.2044572344E-06

    ------------------------------------------------
       NWT REQUIRED            6 OUTER ITERATIONS 
       AND A TOTAL OF         11 INNER ITERATIONS.
    ------------------------------------------------

 NO OUTPUT CONTROL FOR STRESS PERIOD    5   TIME STEP   29
 
 SOLVING FOR HEAD 
                                                   Max.-Head-Change                         Max.-Flux-Residual
  Residual-Control   Outer-Iter.   Inner-Iter.     Column Row Layer    Maximum-Head-Change  Column Row Layer    Maximum-Flux-Residual          L2-NORM 
          0                 1           3            70    7     1      -0.2478570618E+00      70    7    1        -0.3345898006E-02      0.4686396913E-01
          0                 2           3            70    7     1       0.2123394674E-01      70    7    1         0.3343216087E-03      0.4630977846E-02
          0                 3           2            70    7     1      -0.1635575375E-02      70    4    1         0.4128855040E-04      0.4623692637E-03
          0                 4           2            69    7     1       0.1122160600E-03      70    4    1        -0.5177685271E-05      0.4249874618E-04
          0                 5           1            69    7     1      -0.6740087523E-05      70    4    1         0.4746648763E-06      0.3397158540E-05
          0                 6           1            64    1     1       0.3244393537E-06      70    4    1        -0.3418704253E-07      0.2162141912E-06

    ------------------------------------------------
       NWT REQUIRED            6 OUTER ITERATIONS 
       AND A TOTAL OF         12 INNER ITERATIONS.
    ------------------------------------------------

 OUTPUT CONTROL FOR STRESS PERIOD    5   TIME STEP   30
    PRINT HEAD FOR ALL LAYERS
    SAVE HEAD FOR ALL LAYERS
    PRINT BUDGET
    SAVE BUDGET

            WELLS   PERIOD    5   STEP  30
 WELL      1   LAYER   1   ROW     3   COL    50   RATE   -0.519999    
 WELL      2   LAYER   1   ROW     5   COL    55   RATE   -0.519999    

  HEAD DEP BOUNDS   PERIOD    5   STEP    30
 BOUNDARY      1   LAYER   1   ROW     1   COL   100   RATE   -5.026042E-02
 BOUNDARY      2   LAYER   1   ROW     2   COL   100   RATE   -5.036125E-02
 BOUNDARY      3   LAYER   1   ROW     3   COL   100   RATE   -5.019273E-02
 BOUNDARY      4   LAYER   1   ROW     4   COL   100   RATE   -3.922239E-02
 BOUNDARY      5   LAYER   1   ROW     5   COL   100   RATE   -5.019273E-02
 BOUNDARY      6   LAYER   1   ROW     6   COL   100   RATE   -5.036125E-02
 BOUNDARY      7   LAYER   1   ROW     7   COL   100   RATE   -5.026042E-02



 STREAM LISTING     PERIOD      5   STEP       30

 LAYER ROW COL. STREAM  RCH.   FLOW INTO    STREAM     FLOW OUT OF   OVRLND.    DIRECT     STREAM      STREAM      STREAM     STREAM  STREAMBED   FLOW TO   CHNG. UNSAT. 
                SEG.NO.  NO.   STRM. RCH.    LOSS       STRM. RCH.   RUNOFF     PRECIP       ET         HEAD        DEPTH      WIDTH  CONDCTNC.   WAT. TAB.

   1    4    1     1     1    2.0260E+01  5.2848E-03   2.0255E+01  0.000E+00  0.000E+00  0.000E+00  1.43268E+02  3.418E+00  5.902E+00  1.349E-03  5.300E-03 -1.559E-05
   1    4    2     1     2    2.0255E+01  5.2837E-03   2.0249E+01  0.000E+00  0.000E+00  0.000E+00  1.42967E+02  3.417E+00  5.901E+00  1.349E-03  5.353E-03 -6.976E-05
   1    4    3     1     3    2.0249E+01  5.2825E-03   2.0244E+01  0.000E+00  0.000E+00  0.000E+00  1.42667E+02  3.417E+00  5.901E+00  1.349E-03  5.351E-03 -6.830E-05
   1    4    4     1     4    2.0244E+01  5.2814E-03   2.0239E+01  0.000E+00  0.000E+00  0.000E+00  1.42366E+02  3.416E+00  5.900E+00  1.349E-03  5.348E-03 -6.636E-05
   1    4    5     1     5    2.0239E+01  5.2803E-03   2.0234E+01  0.000E+00  0.000E+00  0.000E+00  1.42066E+02  3.416E+00  5.899E+00  1.348E-03  5.344E-03 -6.403E-05
   1    4    6     1     6    2.0234E+01  5.2791E-03   2.0228E+01  0.000E+00  0.000E+00  0.000E+00  1.41766E+02  3.416E+00  5.899E+00  1.348E-03  5.340E-03 -6.129E-05
   1    4    7     1     7    2.0228E+01  5.2780E-03   2.0223E+01  0.000E+00  0.000E+00  0.000E+00  1.41465E+02  3.415E+00  5.898E+00  1.348E-03  5.336E-03 -5.811E-05
   1    4    8     1     8    2.0223E+01  5.2768E-03   2.0218E+01  0.000E+00  0.000E+00  0.000E+00  1.41165E+02  3.415E+00  5.898E+00  1.348E-03  5.331E-03 -5.444E-05
   1    4    9     1     9    2.0218E+01  5.2757E-03   2.0212E+01  0.000E+00  0.000E+00  0.000E+00  1.40864E+02  3.414E+00  5.897E+00  1.348E-03  5.326E-03 -5.033E-05
   1    4   10     1    10    2.0212E+01  5.2746E-03   2.0207E+01  0.000E+00  0.000E+00  0.000E+00  1.40564E+02  3.414E+00  5.897E+00  1.348E-03  5.321E-03 -4.617E-05
   1    4   11     1    11    2.0207E+01  5.2734E-03   2.0202E+01  0.000E+00  0.000E+00  0.000E+00  1.40263E+02  3.413E+00  5.896E+00  1.348E-03  5.315E-03 -4.145E-05
   1    4   12     1    12    2.0202E+01  5.2723E-03   2.0197E+01  0.000E+00  0.000E+00  0.000E+00  1.39963E+02  3.413E+00  5.896E+00  1.347E-03  5.308E-03 -3.610E-05
   1    4   13     1    13    2.0197E+01  5.2711E-03   2.0191E+01  0.000E+00  0.000E+00  0.000E+00  1.39663E+02  3.413E+00  5.895E+00  1.347E-03  5.301E-03 -3.007E-05
   1    4   14     1    14    2.0191E+01  5.2700E-03   2.0186E+01  0.000E+00  0.000E+00  0.000E+00  1.39362E+02  3.412E+00  5.895E+00  1.347E-03  5.293E-03 -2.335E-05
   1    4   15     1    15    2.0186E+01  5.2689E-03   2.0181E+01  0.000E+00  0.000E+00  0.000E+00  1.39062E+02  3.412E+00  5.894E+00  1.347E-03  5.285E-03 -1.592E-05
   1    4   16     1    16    2.0181E+01  5.2677E-03   2.0176E+01  0.000E+00  0.000E+00  0.000E+00  1.38761E+02  3.411E+00  5.894E+00  1.347E-03  5.275E-03 -7.756E-06
   1    4   17     1    17    2.0176E+01  5.2666E-03   2.0170E+01  0.000E+00  0.000E+00  0.000E+00  1.38461E+02  3.411E+00  5.893E+00  1.347E-03  5.265E-03  1.149E-06
   1    4   18     1    18    2.0170E+01  5.2654E-03   2.0165E+01  0.000E+00  0.000E+00  0.000E+00  1.38160E+02  3.410E+00  5.893E+00  1.347E-03  5.255E-03  1.079E-05
   1    4   19     1    19    2.0165E+01  5.2643E-03   2.0160E+01  0.000E+00  0.000E+00  0.000E+00  1.37860E+02  3.410E+00  5.892E+00  1.346E-03  5.243E-03  2.117E-05
   1    4   20     1    20    2.0160E+01  5.2632E-03   2.0155E+01  0.000E+00  0.000E+00  0.000E+00  1.37559E+02  3.409E+00  5.892E+00  1.346E-03  5.231E-03  3.228E-05
   1    4   21     1    21    2.0155E+01  5.2620E-03   2.0149E+01  0.000E+00  0.000E+00  0.000E+00  1.37259E+02  3.409E+00  5.891E+00  1.346E-03  5.218E-03  4.413E-05
   1    4   22     1    22    2.0149E+01  5.2609E-03   2.0144E+01  0.000E+00  0.000E+00  0.000E+00  1.36959E+02  3.409E+00  5.891E+00  1.346E-03  5.204E-03  5.667E-05
   1    4   23     1    23    2.0144E+01  5.2598E-03   2.0139E+01  0.000E+00  0.000E+00  0.000E+00  1.36658E+02  3.408E+00  5.890E+00  1.346E-03  5.190E-03  6.985E-05
   1    4   24     1    24    2.0139E+01  5.2586E-03   2.0133E+01  0.000E+00  0.000E+00  0.000E+00  1.36358E+02  3.408E+00  5.890E+00  1.346E-03  5.175E-03  8.359E-05
   1    4   25     1    25    2.0133E+01  5.2575E-03   2.0128E+01  0.000E+00  0.000E+00  0.000E+00  1.36057E+02  3.407E+00  5.889E+00  1.346E-03  5.160E-03  9.780E-05
   1    4   26     1    26    2.0128E+01  5.2563E-03   2.0123E+01  0.000E+00  0.000E+00  0.000E+00  1.35757E+02  3.407E+00  5.889E+00  1.345E-03  5.144E-03  1.123E-04
   1    4   27     1    27    2.0123E+01  5.2552E-03   2.0118E+01  0.000E+00  0.000E+00  0.000E+00  1.35456E+02  3.406E+00  5.888E+00  1.345E-03  5.128E-03  1.271E-04
   1    4   28     1    28    2.0118E+01  5.2541E-03   2.0112E+01  0.000E+00  0.000E+00  0.000E+00  1.35156E+02  3.406E+00  5.888E+00  1.345E-03  5.112E-03  1.418E-04
   1    4   29     1    29    2.0112E+01  5.2529E-03   2.0107E+01  0.000E+00  0.000E+00  0.000E+00  1.34856E+02  3.406E+00  5.887E+00  1.345E-03  5.097E-03  1.564E-04
   1    4   30     1    30    2.0107E+01  5.2518E-03   2.0102E+01  0.000E+00  0.000E+00  0.000E+00  1.34555E+02  3.405E+00  5.887E+00  1.345E-03  5.081E-03  1.706E-04
   1    4   31     1    31    2.0102E+01  5.2507E-03   2.0097E+01  0.000E+00  0.000E+00  0.000E+00  1.34255E+02  3.405E+00  5.886E+00  1.345E-03  5.066E-03  1.842E-04
   1    4   32     1    32    2.0097E+01  5.2495E-03   2.0091E+01  0.000E+00  0.000E+00  0.000E+00  1.33954E+02  3.404E+00  5.885E+00  1.345E-03  5.054E-03  1.959E-04
   1    4   33     1    33    2.0091E+01  5.2484E-03   2.0086E+01  0.000E+00  0.000E+00  0.000E+00  1.33654E+02  3.404E+00  5.885E+00  1.344E-03  5.042E-03  2.065E-04
   1    4   34     1    34    2.0086E+01  5.2473E-03   2.0081E+01  0.000E+00  0.000E+00  0.000E+00  1.33353E+02  3.403E+00  5.884E+00  1.344E-03  4.966E-03  2.811E-04
   1    4   35     1    35    2.0081E+01  5.2461E-03   2.0076E+01  0.000E+00  0.000E+00  0.000E+00  1.33053E+02  3.403E+00  5.884E+00  1.344E-03  4.599E-03  6.474E-04
   1    4   36     1    36    2.0076E+01  5.2450E-03   2.0070E+01  0.000E+00  0.000E+00  0.000E+00  1.32753E+02  3.403E+00  5.883E+00  1.344E-03  4.203E-03  1.042E-03
   1    4   37     1    37    2.0070E+01  5.2439E-03   2.0065E+01  0.000E+00  0.000E+00  0.000E+00  1.32452E+02  3.402E+00  5.883E+00  1.344E-03  4.198E-03  1.045E-03
   1    4   38     1    38    2.0065E+01  5.2427E-03   2.0060E+01  0.000E+00  0.000E+00  0.000E+00  1.32152E+02  3.402E+00  5.882E+00  1.344E-03  4.197E-03  1.046E-03
   1    4   39     1    39    2.0060E+01  5.2416E-03   2.0055E+01  0.000E+00  0.000E+00  0.000E+00  1.31851E+02  3.401E+00  5.882E+00  1.344E-03  4.198E-03  1.044E-03
   1    4   40     1    40    2.0055E+01  5.2405E-03   2.0049E+01  0.000E+00  0.000E+00  0.000E+00  1.31551E+02  3.401E+00  5.881E+00  1.343E-03  4.201E-03  1.039E-03
   1    4   41     1    41    2.0049E+01  5.2393E-03   2.0044E+01  0.000E+00  0.000E+00  0.000E+00  1.31250E+02  3.400E+00  5.881E+00  1.343E-03  4.208E-03  1.032E-03
   1    4   42     1    42    2.0044E+01  5.2382E-03   2.0039E+01  0.000E+00  0.000E+00  0.000E+00  1.30950E+02  3.400E+00  5.880E+00  1.343E-03  4.217E-03  1.022E-03
   1    4   43     1    43    2.0039E+01  5.2371E-03   2.0034E+01  0.000E+00  0.000E+00  0.000E+00  1.30650E+02  3.400E+00  5.880E+00  1.343E-03  4.229E-03  1.009E-03
   1    4   44     1    44    2.0034E+01  5.2359E-03   2.0029E+01  0.000E+00  0.000E+00  0.000E+00  1.30349E+02  3.399E+00  5.879E+00  1.343E-03  4.243E-03  9.928E-04
   1    4   45     1    45    2.0029E+01  5.2348E-03   2.0023E+01  0.000E+00  0.000E+00  0.000E+00  1.30049E+02  3.399E+00  5.879E+00  1.343E-03  4.260E-03  9.748E-04
   1    4   46     1    46    2.0023E+01  5.2337E-03   2.0018E+01  0.000E+00  0.000E+00  0.000E+00  1.29748E+02  3.398E+00  5.878E+00  1.343E-03  4.279E-03  9.549E-04
   1    4   47     1    47    2.0018E+01  5.2325E-03   2.0013E+01  0.000E+00  0.000E+00  0.000E+00  1.29448E+02  3.398E+00  5.878E+00  1.342E-03  4.299E-03  9.337E-04
   1    4   48     1    48    2.0013E+01  5.2314E-03   2.0008E+01  0.000E+00  0.000E+00  0.000E+00  1.29147E+02  3.397E+00  5.877E+00  1.342E-03  4.319E-03  9.124E-04
   1    4   49     1    49    2.0008E+01  5.2303E-03   2.0002E+01  0.000E+00  0.000E+00  0.000E+00  1.28847E+02  3.397E+00  5.877E+00  1.342E-03  4.338E-03  8.922E-04
   1    4   50     1    50    2.0002E+01  5.2291E-03   1.9997E+01  0.000E+00  0.000E+00  0.000E+00  1.28546E+02  3.396E+00  5.876E+00  1.342E-03  4.355E-03  8.745E-04
   1    4   51     1    51    1.9997E+01  5.2280E-03   1.9992E+01  0.000E+00  0.000E+00  0.000E+00  1.28246E+02  3.396E+00  5.876E+00  1.342E-03  4.367E-03  8.607E-04
   1    4   52     1    52    1.9992E+01  5.2269E-03   1.9987E+01  0.000E+00  0.000E+00  0.000E+00  1.27946E+02  3.396E+00  5.875E+00  1.342E-03  4.373E-03  8.540E-04
   1    4   53     1    53    1.9987E+01  5.2257E-03   1.9981E+01  0.000E+00  0.000E+00  0.000E+00  1.27645E+02  3.395E+00  5.875E+00  1.342E-03  4.371E-03  8.551E-04
   1    4   54     1    54    1.9981E+01  5.2246E-03   1.9976E+01  0.000E+00  0.000E+00  0.000E+00  1.27345E+02  3.395E+00  5.874E+00  1.341E-03  4.361E-03  8.639E-04
   1    4   55     1    55    1.9976E+01  5.2235E-03   1.9971E+01  0.000E+00  0.000E+00  0.000E+00  1.27044E+02  3.394E+00  5.874E+00  1.341E-03  4.343E-03  8.800E-04
   1    4   56     1    56    1.9971E+01  5.2223E-03   1.9966E+01  0.000E+00  0.000E+00  0.000E+00  1.26744E+02  3.394E+00  5.873E+00  1.341E-03  4.323E-03  8.992E-04
   1    4   57     1    57    1.9966E+01  5.2212E-03   1.9961E+01  0.000E+00  0.000E+00  0.000E+00  1.26443E+02  3.393E+00  5.873E+00  1.341E-03  4.300E-03  9.210E-04
   1    4   58     1    58    1.9961E+01  5.2201E-03   1.9955E+01  0.000E+00  0.000E+00  0.000E+00  1.26143E+02  3.393E+00  5.872E+00  1.341E-03  4.276E-03  9.438E-04
   1    4   59     1    59    1.9955E+01  5.2190E-03   1.9950E+01  0.000E+00  0.000E+00  0.000E+00  1.25843E+02  3.393E+00  5.871E+00  1.341E-03  4.252E-03  9.665E-04
   1    4   60     1    60    1.9950E+01  5.2178E-03   1.9945E+01  0.000E+00  0.000E+00  0.000E+00  1.25542E+02  3.392E+00  5.871E+00  1.341E-03  4.230E-03  9.880E-04
   1    4   61     1    61    1.9945E+01  5.2167E-03   1.9940E+01  0.000E+00  0.000E+00  0.000E+00  1.25242E+02  3.392E+00  5.870E+00  1.340E-03  4.209E-03  1.008E-03
   1    4   62     1    62    1.9940E+01  5.2156E-03   1.9934E+01  0.000E+00  0.000E+00  0.000E+00  1.24941E+02  3.391E+00  5.870E+00  1.340E-03  4.191E-03  1.025E-03
   1    4   63     1    63    1.9934E+01  5.2144E-03   1.9929E+01  0.000E+00  0.000E+00  0.000E+00  1.24641E+02  3.391E+00  5.869E+00  1.340E-03  4.175E-03  1.039E-03
   1    4   64     1    64    1.9929E+01  5.2133E-03   1.9924E+01  0.000E+00  0.000E+00  0.000E+00  1.24340E+02  3.390E+00  5.869E+00  1.340E-03  4.163E-03  1.051E-03
   1    4   65     1    65    1.9924E+01  5.2122E-03   1.9919E+01  0.000E+00  0.000E+00  0.000E+00  1.24040E+02  3.390E+00  5.868E+00  1.340E-03  4.594E-03  6.186E-04
   1    4   66     1    66    1.9919E+01  5.2111E-03   1.9914E+01  0.000E+00  0.000E+00  0.000E+00  1.23740E+02  3.390E+00  5.868E+00  1.340E-03  4.910E-03  3.007E-04
   1    4   67     1    67    1.9914E+01  5.2099E-03   1.9908E+01  0.000E+00  0.000E+00  0.000E+00  1.23439E+02  3.389E+00  5.867E+00  1.340E-03  4.899E-03  3.108E-04
   1    4   68     1    68    1.9908E+01  5.2088E-03   1.9903E+01  0.000E+00  0.000E+00  0.000E+00  1.23139E+02  3.389E+00  5.867E+00  1.339E-03  4.892E-03  3.169E-04
   1    4   69     1    69    1.9903E+01  5.2077E-03   1.9898E+01  0.000E+00  0.000E+00  0.000E+00  1.22838E+02  3.388E+00  5.866E+00  1.339E-03  4.887E-03  3.202E-04
   1    4   70     1    70    1.9898E+01  5.2065E-03   1.9893E+01  0.000E+00  0.000E+00  0.000E+00  1.22538E+02  3.388E+00  5.866E+00  1.339E-03  4.885E-03  3.212E-04
   1    4   71     1    71    1.9893E+01  5.2054E-03   1.9888E+01  0.000E+00  0.000E+00  0.000E+00  1.22237E+02  3.387E+00  5.865E+00  1.339E-03  4.885E-03  3.201E-04
   1    4   72     1    72    1.9888E+01  5.2043E-03   1.9882E+01  0.000E+00  0.000E+00  0.000E+00  1.21937E+02  3.387E+00  5.865E+00  1.339E-03  4.887E-03  3.173E-04
   1    4   73     1    73    1.9882E+01  5.2032E-03   1.9877E+01  0.000E+00  0.000E+00  0.000E+00  1.21637E+02  3.387E+00  5.864E+00  1.339E-03  4.890E-03  3.131E-04
   1    4   74     1    74    1.9877E+01  5.2020E-03   1.9872E+01  0.000E+00  0.000E+00  0.000E+00  1.21336E+02  3.386E+00  5.864E+00  1.339E-03  4.894E-03  3.077E-04
   1    4   75     1    75    1.9872E+01  5.2009E-03   1.9867E+01  0.000E+00  0.000E+00  0.000E+00  1.21036E+02  3.386E+00  5.863E+00  1.338E-03  4.900E-03  3.013E-04
   1    4   76     1    76    1.9867E+01  5.1998E-03   1.9862E+01  0.000E+00  0.000E+00  0.000E+00  1.20735E+02  3.385E+00  5.863E+00  1.338E-03  4.906E-03  2.941E-04
   1    4   77     1    77    1.9862E+01  5.1987E-03   1.9856E+01  0.000E+00  0.000E+00  0.000E+00  1.20435E+02  3.385E+00  5.862E+00  1.338E-03  4.912E-03  2.864E-04
   1    4   78     1    78    1.9856E+01  5.1975E-03   1.9851E+01  0.000E+00  0.000E+00  0.000E+00  1.20134E+02  3.384E+00  5.862E+00  1.338E-03  4.919E-03  2.781E-04
   1    4   79     1    79    1.9851E+01  5.1964E-03   1.9846E+01  0.000E+00  0.000E+00  0.000E+00  1.19834E+02  3.384E+00  5.861E+00  1.338E-03  4.927E-03  2.695E-04
   1    4   80     1    80    1.9846E+01  5.1953E-03   1.9841E+01  0.000E+00  0.000E+00  0.000E+00  1.19534E+02  3.384E+00  5.861E+00  1.338E-03  4.935E-03  2.606E-04
   1    4   81     1    81    1.9841E+01  5.1941E-03   1.9836E+01  0.000E+00  0.000E+00  0.000E+00  1.19233E+02  3.383E+00  5.860E+00  1.338E-03  4.943E-03  2.514E-04
   1    4   82     1    82    1.9836E+01  5.1930E-03   1.9830E+01  0.000E+00  0.000E+00  0.000E+00  1.18933E+02  3.383E+00  5.860E+00  1.337E-03  4.951E-03  2.420E-04
   1    4   83     1    83    1.9830E+01  5.1919E-03   1.9825E+01  0.000E+00  0.000E+00  0.000E+00  1.18632E+02  3.382E+00  5.859E+00  1.337E-03  4.960E-03  2.324E-04
   1    4   84     1    84    1.9825E+01  5.1908E-03   1.9820E+01  0.000E+00  0.000E+00  0.000E+00  1.18332E+02  3.382E+00  5.859E+00  1.337E-03  4.968E-03  2.225E-04
   1    4   85     1    85    1.9820E+01  5.1896E-03   1.9815E+01  0.000E+00  0.000E+00  0.000E+00  1.18031E+02  3.381E+00  5.858E+00  1.337E-03  4.977E-03  2.123E-04
   1    4   86     1    86    1.9815E+01  5.1885E-03   1.9810E+01  0.000E+00  0.000E+00  0.000E+00  1.17731E+02  3.381E+00  5.858E+00  1.337E-03  4.987E-03  2.017E-04
   1    4   87     1    87    1.9810E+01  5.1874E-03   1.9804E+01  0.000E+00  0.000E+00  0.000E+00  1.17430E+02  3.380E+00  5.857E+00  1.337E-03  4.997E-03  1.908E-04
   1    4   88     1    88    1.9804E+01  5.1863E-03   1.9799E+01  0.000E+00  0.000E+00  0.000E+00  1.17130E+02  3.380E+00  5.856E+00  1.337E-03  5.007E-03  1.794E-04
   1    4   89     1    89    1.9799E+01  5.1852E-03   1.9794E+01  0.000E+00  0.000E+00  0.000E+00  1.16830E+02  3.380E+00  5.856E+00  1.337E-03  5.018E-03  1.675E-04
   1    4   90     1    90    1.9794E+01  5.1840E-03   1.9789E+01  0.000E+00  0.000E+00  0.000E+00  1.16529E+02  3.379E+00  5.855E+00  1.336E-03  5.029E-03  1.551E-04
   1    4   91     1    91    1.9789E+01  5.1829E-03   1.9784E+01  0.000E+00  0.000E+00  0.000E+00  1.16229E+02  3.379E+00  5.855E+00  1.336E-03  5.041E-03  1.420E-04
   1    4   92     1    92    1.9784E+01  5.1818E-03   1.9779E+01  0.000E+00  0.000E+00  0.000E+00  1.15928E+02  3.378E+00  5.854E+00  1.336E-03  5.054E-03  1.282E-04
   1    4   93     1    93    1.9779E+01  5.1807E-03   1.9773E+01  0.000E+00  0.000E+00  0.000E+00  1.15628E+02  3.378E+00  5.854E+00  1.336E-03  5.067E-03  1.138E-04
   1    4   94     1    94    1.9773E+01  5.1795E-03   1.9768E+01  0.000E+00  0.000E+00  0.000E+00  1.15327E+02  3.377E+00  5.853E+00  1.336E-03  5.081E-03  9.858E-05
   1    4   95     1    95    1.9768E+01  5.1784E-03   1.9763E+01  0.000E+00  0.000E+00  0.000E+00  1.15027E+02  3.377E+00  5.853E+00  1.336E-03  5.096E-03  8.262E-05
   1    4   96     1    96    1.9763E+01  5.1773E-03   1.9758E+01  0.000E+00  0.000E+00  0.000E+00  1.14727E+02  3.377E+00  5.852E+00  1.336E-03  5.111E-03  6.589E-05
   1    4   97     1    97    1.9758E+01  5.1762E-03   1.9753E+01  0.000E+00  0.000E+00  0.000E+00  1.14426E+02  3.376E+00  5.852E+00  1.335E-03  5.128E-03  4.821E-05
   1    4   98     1    98    1.9753E+01  5.1750E-03   1.9747E+01  0.000E+00  0.000E+00  0.000E+00  1.14126E+02  3.376E+00  5.851E+00  1.335E-03  5.147E-03  2.815E-05
   1    4   99     1    99    1.9747E+01  5.1739E-03   1.9742E+01  0.000E+00  0.000E+00  0.000E+00  1.13825E+02  3.375E+00  5.851E+00  1.335E-03  4.827E-03  3.472E-04
   1    4  100     1   100    1.9742E+01  5.1728E-03   1.9737E+01  0.000E+00  0.000E+00  0.000E+00  1.13525E+02  3.375E+00  5.850E+00  1.335E-03  4.342E-03  8.307E-04



1
  VOLUMETRIC BUDGET FOR UNSATURATED ZONE BENEATH STREAMS AT END OF TIME STEP    30 STRESS PERIOD   5
  ------------------------------------------------------------------------------------------------

    CUMULATIVE VOLUMES             L**3    RATES FOR THIS TIME STEP         L**3/T
    ------------------                     ------------------------


          STREAM LOSS =      3290939.7500            STREAM LOSS =            0.5229
    CHANGE IN STORAGE =      1168512.7500      CHANGE IN STORAGE =        3.8977E-02
       RECHARGE TO GW =      2125346.5000         RECHARGE TO GW =            0.4839

             TOTAL IN =      3290939.7500               TOTAL IN =            0.5229

            TOTAL OUT =      3293859.2500              TOTAL OUT =            0.5229

             IN - OUT =        -2919.5000               IN - OUT =        2.3842E-07

  PERCENT DISCREPANCY =           -0.02      PERCENT DISCREPANCY =             0.00



1
              HEAD IN LAYER 1 AT END OF TIME STEP 30 IN STRESS PERIOD 5
  ---------------------------------------------------------------------------

          1      2      3      4      5      6      7      8      9     10
         11     12     13     14     15     16     17     18     19     20
         21     22     23     24     25     26     27     28     29     30
         31     32     33     34     35     36     37     38     39     40
         41     42     43     44     45     46     47     48     49     50
         51     52     53     54     55     56     57     58     59     60
         61     62     63     64     65     66     67     68     69     70
         71     72     73     74     75     76     77     78     79     80
         81     82     83     84     85     86     87     88     89     90
         91     92     93     94     95     96     97     98     99    100
 .........................................................................
   1  104.8 104.8 104.8 104.8 104.8 104.8 104.7 104.7 104.7 104.6
      104.6 104.5 104.4 104.3 104.2 104.1 104.0 103.8 103.6 103.4
      103.2 102.9 102.6 102.2 101.8 101.4 100.9 100.3 99.7 99.0
      98.2 97.4 96.4 95.4 94.3 93.0 91.7 90.2 88.7 87.0
      85.1 83.1 81.0 78.8 76.4 73.8 71.0 68.0 64.9 61.8
      61.6 61.8 61.9 62.3 63.1 65.4 68.1 70.9 73.5 76.0
      78.3 80.5 82.5 84.4 86.1 87.7 89.1 90.4 91.5 92.5
      93.4 94.2 94.8 95.4 95.8 96.1 96.2 96.3 96.3 96.2
      96.0 95.6 95.2 94.7 94.1 93.4 92.7 91.8 90.8 89.8
      88.7 87.5 86.2 84.8 83.4 81.9 80.3 78.6 76.8 75.0
   2  104.8 104.8 104.8 104.8 104.8 104.8 104.7 104.7 104.7 104.6
      104.6 104.5 104.4 104.3 104.2 104.1 104.0 103.8 103.6 103.4
      103.2 102.9 102.6 102.2 101.8 101.4 100.9 100.3 99.7 99.0
      98.2 97.4 96.4 95.4 94.3 93.0 91.7 90.2 88.7 87.0
      85.1 83.1 81.0 78.8 76.4 73.8 71.0 68.1 64.8 61.2
      61.6 61.8 61.9 62.1 62.9 65.3 68.1 70.8 73.5 76.0
      78.3 80.5 82.5 84.4 86.1 87.7 89.1 90.4 91.5 92.5
      93.4 94.2 94.8 95.4 95.8 96.1 96.3 96.3 96.3 96.2
      96.0 95.6 95.2 94.7 94.1 93.4 92.7 91.8 90.9 89.8
      88.7 87.5 86.2 84.8 83.4 81.9 80.3 78.6 76.8 75.0
   3  104.8 104.8 104.8 104.8 104.8 104.8 104.7 104.7 104.7 104.6
      104.6 104.5 104.4 104.4 104.2 104.1 104.0 103.8 103.6 103.4
      103.2 102.9 102.6 102.3 101.9 101.4 100.9 100.3 99.7 99.0
      98.2 97.4 96.4 95.4 94.3 93.0 91.7 90.2 88.7 87.0
      85.1 83.2 81.0 78.8 76.4 73.8 71.1 68.1 64.8 59.7
      61.5 61.8 61.9 61.9 62.2 65.1 68.0 70.8 73.5 76.0
      78.3 80.5 82.5 84.4 86.1 87.7 89.1 90.4 91.5 92.6
      93.4 94.2 94.8 95.4 95.8 96.1 96.3 96.3 96.3 96.2
      96.0 95.7 95.2 94.7 94.1 93.5 92.7 91.8 90.9 89.8
      88.7 87.5 86.2 84.9 83.4 81.9 80.3 78.6 76.8 75.0
   4  104.8 104.8 104.8 104.8 104.8 104.8 104.8 104.7 104.7 104.6
      104.6 104.5 104.5 104.4 104.3 104.1 104.0 103.8 103.7 103.4
      103.2 102.9 102.6 102.3 101.9 101.4 100.9 100.3 99.7 99.0
      98.2 97.4 96.5 95.4 94.3 93.1 91.7 90.3 88.7 87.0
      85.1 83.2 81.1 78.8 76.4 73.8 71.1 68.2 65.0 61.3
      61.8 61.9 61.8 61.7 61.2 64.8 68.0 70.8 73.5 76.0
      78.3 80.5 82.5 84.4 86.1 87.7 89.1 90.4 91.6 92.6
      93.5 94.2 94.9 95.4 95.8 96.1 96.3 96.4 96.3 96.2
      96.0 95.7 95.3 94.7 94.1 93.5 92.7 91.8 90.9 89.8
      88.7 87.5 86.2 84.9 83.4 81.9 80.3 78.6 76.9 75.0
   5  104.8 104.8 104.8 104.8 104.8 104.8 104.7 104.7 104.7 104.6
      104.6 104.5 104.4 104.4 104.2 104.1 104.0 103.8 103.6 103.4
      103.2 102.9 102.6 102.3 101.9 101.4 100.9 100.3 99.7 99.0
      98.2 97.4 96.4 95.4 94.3 93.0 91.7 90.2 88.7 87.0
      85.1 83.2 81.0 78.8 76.4 73.8 71.1 68.2 65.2 62.3
      62.0 61.9 61.8 61.5 59.6 64.6 67.9 70.8 73.5 76.0
      78.3 80.5 82.5 84.4 86.1 87.7 89.1 90.4 91.5 92.6
      93.4 94.2 94.8 95.4 95.8 96.1 96.3 96.3 96.3 96.2
      96.0 95.7 95.2 94.7 94.1 93.5 92.7 91.8 90.9 89.8
      88.7 87.5 86.2 84.9 83.4 81.9 80.3 78.6 76.8 75.0
   6  104.8 104.8 104.8 104.8 104.8 104.8 104.7 104.7 104.7 104.6
      104.6 104.5 104.4 104.3 104.2 104.1 104.0 103.8 103.6 103.4
      103.2 102.9 102.6 102.2 101.8 101.4 100.9 100.3 99.7 99.0
      98.2 97.4 96.4 95.4 94.3 93.0 91.7 90.2 88.7 87.0
      85.1 83.1 81.0 78.8 76.4 73.8 71.1 68.3 65.4 63.0
      62.2 61.9 61.8 61.5 61.1 64.6 67.8 70.8 73.5 76.0
      78.3 80.5 82.5 84.4 86.1 87.7 89.1 90.4 91.5 92.5
      93.4 94.2 94.8 95.4 95.8 96.1 96.3 96.3 96.3 96.2
      96.0 95.6 95.2 94.7 94.1 93.4 92.7 91.8 90.9 89.8
      88.7 87.5 86.2 84.8 83.4 81.9 80.3 78.6 76.8 75.0
   7  104.8 104.8 104.8 104.8 104.8 104.8 104.7 104.7 104.7 104.6
      104.6 104.5 104.4 104.3 104.2 104.1 104.0 103.8 103.6 103.4
      103.2 102.9 102.6 102.2 101.8 101.4 100.9 100.3 99.7 99.0
      98.2 97.4 96.4 95.4 94.3 93.0 91.7 90.2 88.7 87.0
      85.1 83.1 81.0 78.8 76.4 73.8 71.1 68.3 65.6 63.3
      62.3 62.0 61.8 61.6 61.7 64.7 67.8 70.8 73.5 76.0
      78.3 80.5 82.5 84.4 86.1 87.7 89.1 90.4 91.5 92.5
      93.4 94.2 94.8 95.4 95.8 96.1 96.2 96.3 96.3 96.2
      96.0 95.6 95.2 94.7 94.1 93.4 92.7 91.8 90.8 89.8
      88.7 87.5 86.2 84.8 83.4 81.9 80.3 78.6 76.8 75.0

 HEAD WILL BE SAVED ON UNIT   51 AT END OF TIME STEP   30, STRESS PERIOD    5
1
  VOLUMETRIC BUDGET FOR ENTIRE MODEL AT END OF TIME STEP   30, STRESS PERIOD   5
  ------------------------------------------------------------------------------

     CUMULATIVE VOLUMES      L**3       RATES FOR THIS TIME STEP      L**3/T
     ------------------                 ------------------------

           IN:                                      IN:
           ---                                      ---
             STORAGE     =    32913618.0000               STORAGE     =           0.9492
       CONSTANT HEAD     =           0.0000         CONSTANT HEAD     =           0.0000
               WELLS     =           0.0000                 WELLS     =           0.0000
     HEAD DEP BOUNDS     =           0.0000       HEAD DEP BOUNDS     =           0.0000
      STREAM LEAKAGE     =     2125342.2500        STREAM LEAKAGE     =           0.4839

                TOTAL IN =    35038960.0000                  TOTAL IN =           1.4331

          OUT:                                     OUT:
          ----                                     ----
             STORAGE     =      586633.1250               STORAGE     =       5.2231E-02
       CONSTANT HEAD     =           0.0000         CONSTANT HEAD     =           0.0000
               WELLS     =    26334720.0000                 WELLS     =           1.0400
     HEAD DEP BOUNDS     =     8117602.5000       HEAD DEP BOUNDS     =           0.3409
      STREAM LEAKAGE     =           0.0000        STREAM LEAKAGE     =           0.0000

               TOTAL OUT =    35038956.0000                 TOTAL OUT =           1.4331

                IN - OUT =           4.0000                  IN - OUT =           0.0000

     PERCENT DISCREPANCY =           0.00         PERCENT DISCREPANCY =           0.00






         TIME SUMMARY AT END OF TIME STEP   30 IN STRESS PERIOD    5
                    SECONDS     MINUTES      HOURS       DAYS        YEARS
                    -----------------------------------------------------------
   TIME STEP LENGTH 2.49961E+05  4166.0      69.434      2.8931     7.92080E-03
 STRESS PERIOD TIME 2.59200E+06  43200.      720.00      30.000     8.21355E-02
         TOTAL TIME 1.29600E+07 2.16000E+05  3600.0      150.00     0.41068    
1
1
                            STRESS PERIOD NO.    6, LENGTH =   2592000.    
                            -----------------------------------------------

                              NUMBER OF TIME STEPS =    30

                               MULTIPLIER FOR DELT =     1.100

                            INITIAL TIME STEP SIZE =   15757.40    

 REUSING NON-PARAMETER WELLS FROM LAST STRESS PERIOD

      1 WELL 

 REUSING NON-PARAMETER GHB CELLS FROM LAST STRESS PERIOD

      7 GHB CELLS



 CLASSIFICATION & COUNT OF STREAM SEGMENTS BASED ON SOURCE OF INFLOW:

                HEADWATER     DIVERSION     RECEIVES TRIBUTARY FLOW
                ---------     ---------     -----------------------
                     1              0               0



                    INPUT DATA FOR EACH STREAM SEGMENT
 ---------------------------------------------------------------------------------------------

 SEGMENT    SEG.     INFLOW   OVERLAND   STREAM    STREAM   ICALC  OUTFLOW  DIVERSION PRIORITY
    NO.    LENGTH     RATE     RUNOFF      ET       PPT.    METH.  TO SEG.  FROM SEG.    NO.

      1  2.000E+04 3.561E+01 0.000E+00 0.000E+00 0.000E+00    2        0        0        0


         STREAMBED PROPERTIES AND STREAM DIMENSIONS

 SEGMENT     BED HYD. COND.      BED THICKNESS     ELEV.-TOP OF BED     WIDTH OF STREAM     DEPTH OF STREAM    STREAM ROUGHNESS
    No.     UPPER     LOWER     UPPER     LOWER     UPPER     LOWER     UPPER     LOWER     UPPER     LOWER   CHANNEL      BANK

     1  3.500E-07 3.500E-07                                                                                 3.000E-02 4.000E-02

  EIGHT POINT CROSS-SECTION DATA FOR SEGMENTS WITH ICALC = 2
    X VALUES X VALUES START FROM LEFT SIDE LOOKING DOWNSTREAM

     SEGMENT NO.        X1        X2        X3        X4        X5        X6        X7        X8
            1      0.000E+00 2.000E+00 4.000E+00 6.000E+00 8.000E+00 1.000E+01 1.200E+01 1.400E+01

    Z VALUES ARE RELATIVE TO STREAMBED ELEVATION

     SEGMENT NO.          Z1        Z2        Z3        Z4        Z5        Z6        Z7        Z8
            1      6.000E+00 4.500E+00 3.500E+00 0.000E+00 3.000E-01 3.500E+00 4.500E+00 6.000E+00



 
 SOLVING FOR HEAD 
                                                   Max.-Head-Change                         Max.-Flux-Residual
  Residual-Control   Outer-Iter.   Inner-Iter.     Column Row Layer    Maximum-Head-Change  Column Row Layer    Maximum-Flux-Residual          L2-NORM 
          0                 1           2            55    5     1      -0.8492223880E+00      55    5    1        -0.3402690313E+00      0.4833160156E+00
          0                 2           2            55    5     1       0.7970203475E-01      55    5    1         0.3343027962E-01      0.4782619210E-01
          0                 3           2            55    5     1      -0.6925345138E-02      55    5    1        -0.3013082499E-02      0.4363718843E-02
          0                 4           2            55    5     1       0.5415971981E-03      55    5    1         0.2413220307E-03      0.3525806284E-03
          0                 5           1            55    5     1      -0.3745832632E-04      55    5    1        -0.1696483502E-04      0.2490489846E-04
          0                 6           1            55    5     1       0.2242621640E-05      55    5    1         0.1028001417E-05      0.1512258957E-05
          0                 7           1            55    5     1      -0.1132122433E-06      55    5    1        -0.5241789225E-07      0.7716189215E-07

    ------------------------------------------------
       NWT REQUIRED            7 OUTER ITERATIONS 
       AND A TOTAL OF         11 INNER ITERATIONS.
    ------------------------------------------------

 NO OUTPUT CONTROL FOR STRESS PERIOD    6   TIME STEP    1
 
 SOLVING FOR HEAD 
                                                   Max.-Head-Change                         Max.-Flux-Residual
  Residual-Control   Outer-Iter.   Inner-Iter.     Column Row Layer    Maximum-Head-Change  Column Row Layer    Maximum-Flux-Residual          L2-NORM 
          0                 1           2            55    5     1      -0.5421987762E+00      55    5    1        -0.1772908571E+00      0.2691427333E+00
          0                 2           2            55    5     1       0.4929465427E-01      55    5    1         0.1741869323E-01      0.2607756657E-01
          0                 3           2            55    5     1      -0.4189585474E-02      55    5    1        -0.1570092903E-02      0.2388260709E-02
          0                 4           2            55    5     1       0.3231862668E-03      55    5    1         0.1257499754E-03      0.1945572851E-03
          0                 5           1            55    5     1      -0.2218481797E-04      55    5    1        -0.8840172039E-05      0.1382076932E-04
          0                 6           1            55    5     1       0.1323479523E-05      55    5    1         0.5356792050E-06      0.8416245211E-06
          0                 7           1            55    5     1      -0.6672287195E-07      55    5    1        -0.2731434456E-07      0.4299002094E-07

    ------------------------------------------------
       NWT REQUIRED            7 OUTER ITERATIONS 
       AND A TOTAL OF         11 INNER ITERATIONS.
    ------------------------------------------------

 NO OUTPUT CONTROL FOR STRESS PERIOD    6   TIME STEP    2
 
 SOLVING FOR HEAD 
                                                   Max.-Head-Change                         Max.-Flux-Residual
  Residual-Control   Outer-Iter.   Inner-Iter.     Column Row Layer    Maximum-Head-Change  Column Row Layer    Maximum-Flux-Residual          L2-NORM 
          0                 1           2            55    5     1      -0.3832970743E+00      55    5    1        -0.1031683869E+00      0.1850481569E+00
          0                 2           2            55    5     1       0.3417770742E-01      55    5    1         0.1017125721E-01      0.1766202183E-01
          0                 3           2            55    5     1      -0.2856130832E-02      55    5    1        -0.9165947229E-03      0.1620669074E-02
          0                 4           2            55    5     1       0.2177837043E-03      55    5    1         0.7341231075E-04      0.1329159228E-03
          0                 5           1            55    5     1      -0.1484371073E-04      55    5    1        -0.5160845891E-05      0.9488876377E-05
          0                 6           1            55    5     1       0.8822154127E-06      55    5    1         0.3127267529E-06      0.5793610541E-06

    ------------------------------------------------
       NWT REQUIRED            6 OUTER ITERATIONS 
       AND A TOTAL OF         10 INNER ITERATIONS.
    ------------------------------------------------

 NO OUTPUT CONTROL FOR STRESS PERIOD    6   TIME STEP    3
 
 SOLVING FOR HEAD 
                                                   Max.-Head-Change                         Max.-Flux-Residual
  Residual-Control   Outer-Iter.   Inner-Iter.     Column Row Layer    Maximum-Head-Change  Column Row Layer    Maximum-Flux-Residual          L2-NORM 
          0                 1           2            55    5     1      -0.2952515329E+00      55    5    1        -0.6643628274E-01      0.1472988058E+00
          0                 2           2            55    5     1       0.2601008382E-01      55    5    1         0.6570736915E-02      0.1405927938E-01
          0                 3           2            55    5     1      -0.2146570705E-02      55    5    1        -0.5919705976E-03      0.1294129733E-02
          0                 4           2            55    5     1       0.1621234052E-03      55    5    1         0.4741349415E-04      0.1066050626E-03
          0                 5           1            55    5     1      -0.1097860504E-04      55    5    1        -0.3333136114E-05      0.7635292013E-05
          0                 6           1            55    5     1       0.6500323452E-06      55    5    1         0.2019748271E-06      0.4670691625E-06

    ------------------------------------------------
       NWT REQUIRED            6 OUTER ITERATIONS 
       AND A TOTAL OF         10 INNER ITERATIONS.
    ------------------------------------------------

 NO OUTPUT CONTROL FOR STRESS PERIOD    6   TIME STEP    4
 
 SOLVING FOR HEAD 
                                                   Max.-Head-Change                         Max.-Flux-Residual
  Residual-Control   Outer-Iter.   Inner-Iter.     Column Row Layer    Maximum-Head-Change  Column Row Layer    Maximum-Flux-Residual          L2-NORM 
          0                 1           2            55    5     1      -0.2436319179E+00      55    5    1        -0.4654653428E-01      0.1276110687E+00
          0                 2           2            55    5     1       0.2128953512E-01      55    5    1         0.4614164909E-02      0.1225286584E-01
          0                 3           2            55    6     1      -0.1807285863E-02      55    5    1        -0.4156114910E-03      0.1131736220E-02
          0                 4           2            55    6     1       0.1411095726E-03      55    5    1         0.3328876782E-04      0.9352226435E-04
          0                 5           1            55    6     1      -0.9738051876E-05      55    5    1        -0.2340173524E-05      0.6714436697E-05
          0                 6           1            55    6     1       0.5819512118E-06      55    5    1         0.1418052555E-06      0.4113765269E-06

    ------------------------------------------------
       NWT REQUIRED            6 OUTER ITERATIONS 
       AND A TOTAL OF         10 INNER ITERATIONS.
    ------------------------------------------------

 NO OUTPUT CONTROL FOR STRESS PERIOD    6   TIME STEP    5
 
 SOLVING FOR HEAD 
                                                   Max.-Head-Change                         Max.-Flux-Residual
  Residual-Control   Outer-Iter.   Inner-Iter.     Column Row Layer    Maximum-Head-Change  Column Row Layer    Maximum-Flux-Residual          L2-NORM 
          0                 1           2            55    5     1      -0.2124363016E+00      55    5    1        -0.3494797518E-01      0.1159653992E+00
          0                 2           2            55    6     1       0.1934995462E-01      55    5    1         0.3469587716E-02      0.1119816924E-01
          0                 3           2            55    6     1      -0.1678092031E-02      55    5    1        -0.3124711631E-03      0.1037664099E-02
          0                 4           2            55    6     1       0.1307940320E-03      55    5    1         0.2502798873E-04      0.8600582903E-04
          0                 5           1            55    6     1      -0.9013844602E-05      55    5    1        -0.1759445238E-05      0.6190146102E-05
          0                 6           1            55    6     1       0.5381631540E-06      55    5    1         0.1066154347E-06      0.3799086154E-06

    ------------------------------------------------
       NWT REQUIRED            6 OUTER ITERATIONS 
       AND A TOTAL OF         10 INNER ITERATIONS.
    ------------------------------------------------

 NO OUTPUT CONTROL FOR STRESS PERIOD    6   TIME STEP    6
 
 SOLVING FOR HEAD 
                                                   Max.-Head-Change                         Max.-Flux-Residual
  Residual-Control   Outer-Iter.   Inner-Iter.     Column Row Layer    Maximum-Head-Change  Column Row Layer    Maximum-Flux-Residual          L2-NORM 
          0                 1           2            55    5     1      -0.1934456521E+00      55    5    1        -0.2772528102E-01      0.1083894806E+00
          0                 2           2            55    6     1       0.1821479052E-01      55    5    1         0.2754987267E-02      0.1051198864E-01
          0                 3           2            55    7     1      -0.1598513152E-02      55    5    1        -0.2480929976E-03      0.9772953152E-03
          0                 4           2            55    7     1       0.1257855409E-03      55    5    1         0.1987165671E-04      0.8127031451E-04
          0                 5           1            55    7     1      -0.8716836598E-05      55    5    1        -0.1396958575E-05      0.5865774547E-05
          0                 6           1            55    7     1       0.5219208256E-06      55    5    1         0.8465017309E-07      0.3607197884E-06

    ------------------------------------------------
       NWT REQUIRED            6 OUTER ITERATIONS 
       AND A TOTAL OF         10 INNER ITERATIONS.
    ------------------------------------------------

 NO OUTPUT CONTROL FOR STRESS PERIOD    6   TIME STEP    7
 
 SOLVING FOR HEAD 
                                                   Max.-Head-Change                         Max.-Flux-Residual
  Residual-Control   Outer-Iter.   Inner-Iter.     Column Row Layer    Maximum-Head-Change  Column Row Layer    Maximum-Flux-Residual          L2-NORM 
          0                 1           2            55    6     1      -0.1842291948E+00      55    5    1        -0.2296689889E-01      0.1031527739E+00
          0                 2           2            55    7     1       0.1773446084E-01      55    5    1         0.2283198904E-02      0.1003051241E-01
          0                 3           2            55    7     1      -0.1558194278E-02      55    5    1        -0.2055991549E-03      0.9353007412E-03
          0                 4           2            55    7     1       0.1224286127E-03      55    5    1         0.1646806668E-04      0.7806618447E-04
          0                 5           1            55    7     1      -0.8474779889E-05      55    5    1        -0.1157688915E-05      0.5653864363E-05
          0                 6           1            55    7     1       0.5070419410E-06      55    5    1         0.7015138515E-07      0.3485818317E-06

    ------------------------------------------------
       NWT REQUIRED            6 OUTER ITERATIONS 
       AND A TOTAL OF         10 INNER ITERATIONS.
    ------------------------------------------------

 NO OUTPUT CONTROL FOR STRESS PERIOD    6   TIME STEP    8
 
 SOLVING FOR HEAD 
                                                   Max.-Head-Change                         Max.-Flux-Residual
  Residual-Control   Outer-Iter.   Inner-Iter.     Column Row Layer    Maximum-Head-Change  Column Row Layer    Maximum-Flux-Residual          L2-NORM 
          0                 1           2            55    7     1      -0.1796147196E+00      55    6    1        -0.1972422608E-01      0.9939604241E-01
          0                 2           2            55    7     1       0.1734201926E-01      55    6    1         0.1967185875E-02      0.9679467678E-02
          0                 3           2            55    7     1      -0.1520077650E-02      55    6    1        -0.1771227096E-03      0.9051367878E-03
          0                 4           2            55    7     1       0.1192034771E-03      55    6    1         0.1418680564E-04      0.7585280175E-04
          0                 5           1            55    7     1      -0.8239589664E-05      55    6    1        -0.9973237214E-06      0.5514999187E-05
          0                 6           1            55    7     1       0.4924708167E-06      55    4    1        -0.6201204528E-07      0.3410486382E-06

    ------------------------------------------------
       NWT REQUIRED            6 OUTER ITERATIONS 
       AND A TOTAL OF         10 INNER ITERATIONS.
    ------------------------------------------------

 NO OUTPUT CONTROL FOR STRESS PERIOD    6   TIME STEP    9
 
 SOLVING FOR HEAD 
                                                   Max.-Head-Change                         Max.-Flux-Residual
  Residual-Control   Outer-Iter.   Inner-Iter.     Column Row Layer    Maximum-Head-Change  Column Row Layer    Maximum-Flux-Residual          L2-NORM 
          0                 1           2            55    7     1      -0.1773956551E+00      55    7    1        -0.1744535639E-01      0.9666717676E-01
          0                 2           2            55    7     1       0.1707235915E-01      55    7    1         0.1740301592E-02      0.9422801632E-02
          0                 3           2            55    7     1      -0.1492150201E-02      55    7    1        -0.1566806779E-03      0.8835325933E-03
          0                 4           2            55    7     1       0.1167383240E-03      55    7    1         0.1254963329E-04      0.7435208279E-04
          0                 5           1            55    7     1      -0.8054616158E-05      55    7    1        -0.8822304203E-06      0.5428756211E-05
          0                 6           1            55    7     1       0.4807866511E-06      55    4    1        -0.5958921179E-07      0.3368587207E-06

    ------------------------------------------------
       NWT REQUIRED            6 OUTER ITERATIONS 
       AND A TOTAL OF         10 INNER ITERATIONS.
    ------------------------------------------------

 NO OUTPUT CONTROL FOR STRESS PERIOD    6   TIME STEP   10
 
 SOLVING FOR HEAD 
                                                   Max.-Head-Change                         Max.-Flux-Residual
  Residual-Control   Outer-Iter.   Inner-Iter.     Column Row Layer    Maximum-Head-Change  Column Row Layer    Maximum-Flux-Residual          L2-NORM 
          0                 1           2            55    7     1      -0.1769928364E+00      55    7    1        -0.1566804827E-01      0.9464407087E-01
          0                 2           2            55    7     1       0.1697275494E-01      55    7    1         0.1563206770E-02      0.9231010230E-02
          0                 3           2            55    7     1      -0.1478579837E-02      55    7    1        -0.1407362547E-03      0.8677475881E-03
          0                 4           2            55    7     1       0.1153582569E-03      55    7    1         0.1127252884E-04      0.7333248364E-04
          0                 5           1            55    7     1      -0.7942080697E-05      55    4    1         0.8474162154E-06      0.5378179410E-05
          0                 6           1            55    7     1       0.4732974849E-06      55    4    1        -0.5796619540E-07      0.3349616258E-06

    ------------------------------------------------
       NWT REQUIRED            6 OUTER ITERATIONS 
       AND A TOTAL OF         10 INNER ITERATIONS.
    ------------------------------------------------

 NO OUTPUT CONTROL FOR STRESS PERIOD    6   TIME STEP   11
 
 SOLVING FOR HEAD 
                                                   Max.-Head-Change                         Max.-Flux-Residual
  Residual-Control   Outer-Iter.   Inner-Iter.     Column Row Layer    Maximum-Head-Change  Column Row Layer    Maximum-Flux-Residual          L2-NORM 
          0                 1           2            55    5     1      -0.1787847535E+00      55    7    1        -0.1421588841E-01      0.9300905595E-01
          0                 2           2            55    7     1       0.1706557915E-01      55    7    1         0.1418607317E-02      0.9096069715E-02
          0                 3           2            55    7     1      -0.1481296756E-02      55    7    1        -0.1277168998E-03      0.8576828332E-03
          0                 4           2            55    7     1       0.1152099867E-03      55    7    1         0.1022971708E-04      0.7276519286E-04
          0                 5           1            55    7     1      -0.7911723792E-05      55    4    1         0.8271788126E-06      0.5358150279E-05
          0                 6           1            55    7     1       0.4705586487E-06      55    4    1        -0.5692134408E-07      0.3348693456E-06

    ------------------------------------------------
       NWT REQUIRED            6 OUTER ITERATIONS 
       AND A TOTAL OF         10 INNER ITERATIONS.
    ------------------------------------------------

 NO OUTPUT CONTROL FOR STRESS PERIOD    6   TIME STEP   12
 
 SOLVING FOR HEAD 
                                                   Max.-Head-Change                         Max.-Flux-Residual
  Residual-Control   Outer-Iter.   Inner-Iter.     Column Row Layer    Maximum-Head-Change  Column Row Layer    Maximum-Flux-Residual          L2-NORM 
          0                 1           2            55    5     1      -0.1846328476E+00      55    5    1        -0.1317571754E-01      0.9160881812E-01
          0                 2           2            55    7     1       0.1736084222E-01      55    5    1         0.1308216737E-02      0.8964824262E-02
          0                 3           2            55    7     1      -0.1501107492E-02      55    5    1        -0.1178248941E-03      0.8472057731E-03
          0                 4           2            55    7     1       0.1163498266E-03      55    5    1         0.9437378118E-05      0.7215967648E-04
          0                 5           1            55    7     1      -0.7966909690E-05      55    4    1         0.8135095708E-06      0.5337162374E-05
          0                 6           1            55    7     1       0.4727364789E-06      55    4    1        -0.5631930300E-07      0.3348709541E-06

    ------------------------------------------------
       NWT REQUIRED            6 OUTER ITERATIONS 
       AND A TOTAL OF         10 INNER ITERATIONS.
    ------------------------------------------------

 NO OUTPUT CONTROL FOR STRESS PERIOD    6   TIME STEP   13
 
 SOLVING FOR HEAD 
                                                   Max.-Head-Change                         Max.-Flux-Residual
  Residual-Control   Outer-Iter.   Inner-Iter.     Column Row Layer    Maximum-Head-Change  Column Row Layer    Maximum-Flux-Residual          L2-NORM 
          0                 1           2            55    5     1      -0.1928165762E+00      55    5    1        -0.1239530550E-01      0.9040130897E-01
          0                 2           2            55    7     1       0.1786533366E-01      55    5    1         0.1229735359E-02      0.8864338253E-02
          0                 3           2            55    7     1      -0.1538502935E-02      55    5    1        -0.1107666027E-03      0.8402486220E-03
          0                 4           2            55    7     1       0.1188072031E-03      55    4    1        -0.8943546656E-05      0.7183558844E-04
          0                 5           1            55    7     1      -0.8109016520E-05      55    4    1         0.8054476259E-06      0.5333951395E-05
          0                 6           1            55    7     1       0.4798722644E-06      55    4    1        -0.5609596343E-07      0.3358217650E-06

    ------------------------------------------------
       NWT REQUIRED            6 OUTER ITERATIONS 
       AND A TOTAL OF         10 INNER ITERATIONS.
    ------------------------------------------------

 NO OUTPUT CONTROL FOR STRESS PERIOD    6   TIME STEP   14
 
 SOLVING FOR HEAD 
                                                   Max.-Head-Change                         Max.-Flux-Residual
  Residual-Control   Outer-Iter.   Inner-Iter.     Column Row Layer    Maximum-Head-Change  Column Row Layer    Maximum-Flux-Residual          L2-NORM 
          0                 1           2            55    5     1      -0.2030196285E+00      55    5    1        -0.1175983158E-01      0.8923689856E-01
          0                 2           2            55    7     1       0.1857656075E-01      55    5    1         0.1165540516E-02      0.8787076289E-02
          0                 3           2            55    7     1      -0.1593169459E-02      55    5    1        -0.1049955961E-03      0.8350738118E-03
          0                 4           2            55    7     1       0.1225489334E-03      55    4    1        -0.8836375645E-05      0.7159682027E-04
          0                 5           1            55    7     1      -0.8335106490E-05      55    4    1         0.8009235737E-06      0.5333841732E-05
          0                 6           1            55    7     1       0.4917456774E-06      55    4    1        -0.5611115217E-07      0.3368714564E-06

    ------------------------------------------------
       NWT REQUIRED            6 OUTER ITERATIONS 
       AND A TOTAL OF         10 INNER ITERATIONS.
    ------------------------------------------------

 NO OUTPUT CONTROL FOR STRESS PERIOD    6   TIME STEP   15
 
 SOLVING FOR HEAD 
                                                   Max.-Head-Change                         Max.-Flux-Residual
  Residual-Control   Outer-Iter.   Inner-Iter.     Column Row Layer    Maximum-Head-Change  Column Row Layer    Maximum-Flux-Residual          L2-NORM 
          0                 1           2            55    5     1      -0.2153143880E+00      55    5    1        -0.1125678853E-01      0.8793590494E-01
          0                 2           2            55    7     1       0.1949151143E-01      55    5    1         0.1114294334E-02      0.8640577351E-02
          0                 3           2            55    7     1      -0.1664721877E-02      55    5    1        -0.1003921437E-03      0.8224798096E-03
          0                 4           2            55    7     1       0.1275345217E-03      55    4    1        -0.8763301915E-05      0.7079305175E-04
          0                 5           1            55    7     1      -0.8641624052E-05      55    4    1         0.7993472488E-06      0.5298207644E-05
          0                 6           1            55    7     1       0.5080864156E-06      55    4    1        -0.5632106337E-07      0.3359977287E-06

    ------------------------------------------------
       NWT REQUIRED            6 OUTER ITERATIONS 
       AND A TOTAL OF         10 INNER ITERATIONS.
    ------------------------------------------------

 NO OUTPUT CONTROL FOR STRESS PERIOD    6   TIME STEP   16
 
 SOLVING FOR HEAD 
                                                   Max.-Head-Change                         Max.-Flux-Residual
  Residual-Control   Outer-Iter.   Inner-Iter.     Column Row Layer    Maximum-Head-Change  Column Row Layer    Maximum-Flux-Residual          L2-NORM 
          0                 1           2            55    5     1      -0.2296561840E+00      55    5    1        -0.1084820564E-01      0.8680143036E-01
          0                 2           2            54    7     1       0.2088893594E-01      55    5    1         0.1072190090E-02      0.8524300524E-02
          0                 3           2            54    7     1      -0.1775921920E-02      55    5    1        -0.9661369482E-04      0.8130469465E-03
          0                 4           2            54    7     1       0.1354561426E-03      54    4    1        -0.8754574484E-05      0.7025430295E-04
          0                 5           1            54    7     1      -0.9141148446E-05      54    4    1         0.8012931971E-06      0.5281827938E-05
          0                 6           1            54    7     1       0.5354266105E-06      54    4    1        -0.5681799742E-07      0.3363112543E-06

    ------------------------------------------------
       NWT REQUIRED            6 OUTER ITERATIONS 
       AND A TOTAL OF         10 INNER ITERATIONS.
    ------------------------------------------------

 NO OUTPUT CONTROL FOR STRESS PERIOD    6   TIME STEP   17
 
 SOLVING FOR HEAD 
                                                   Max.-Head-Change                         Max.-Flux-Residual
  Residual-Control   Outer-Iter.   Inner-Iter.     Column Row Layer    Maximum-Head-Change  Column Row Layer    Maximum-Flux-Residual          L2-NORM 
          0                 1           2            55    5     1      -0.2460723341E+00      55    5    1        -0.1051660150E-01      0.8625835584E-01
          0                 2           2            54    7     1       0.2246242423E-01      55    5    1         0.1037417270E-02      0.8455829988E-02
          0                 3           2            54    7     1      -0.1902496590E-02      55    5    1        -0.9349777140E-04      0.8077479321E-03
          0                 4           2            54    7     1       0.1445311799E-03      54    4    1        -0.8795175358E-05      0.7003174109E-04
          0                 5           1            54    7     1      -0.9714684208E-05      54    4    1         0.8105509028E-06      0.5285548650E-05
          0                 6           1            54    7     1       0.5667258393E-06      54    4    1        -0.5785473967E-07      0.3376530137E-06

    ------------------------------------------------
       NWT REQUIRED            6 OUTER ITERATIONS 
       AND A TOTAL OF         10 INNER ITERATIONS.
    ------------------------------------------------

 NO OUTPUT CONTROL FOR STRESS PERIOD    6   TIME STEP   18
 
 SOLVING FOR HEAD 
                                                   Max.-Head-Change                         Max.-Flux-Residual
  Residual-Control   Outer-Iter.   Inner-Iter.     Column Row Layer    Maximum-Head-Change  Column Row Layer    Maximum-Flux-Residual          L2-NORM 
          0                 1           2            55    5     1      -0.2646056283E+00      55    5    1        -0.1025341810E-01      0.8500975322E-01
          0                 2           2            54    7     1       0.2417493417E-01      55    5    1         0.1009025868E-02      0.8348988934E-02
          0                 3           2            54    7     1      -0.2039922535E-02      55    5    1        -0.9095957356E-04      0.8004966507E-03
          0                 4           2            54    7     1       0.1543460372E-03      53    4    1        -0.8869401455E-05      0.6971158330E-04
          0                 5           1            54    7     1      -0.1033148345E-04      53    4    1         0.8220990804E-06      0.5284751218E-05
          0                 6           1            54    7     1       0.6000789265E-06      52    4    1        -0.5886948884E-07      0.3387544531E-06

    ------------------------------------------------
       NWT REQUIRED            6 OUTER ITERATIONS 
       AND A TOTAL OF         10 INNER ITERATIONS.
    ------------------------------------------------

 NO OUTPUT CONTROL FOR STRESS PERIOD    6   TIME STEP   19
 
 SOLVING FOR HEAD 
                                                   Max.-Head-Change                         Max.-Flux-Residual
  Residual-Control   Outer-Iter.   Inner-Iter.     Column Row Layer    Maximum-Head-Change  Column Row Layer    Maximum-Flux-Residual          L2-NORM 
          0                 1           2            55    5     1      -0.2849198405E+00      55    5    1        -0.1001783809E-01      0.8378484959E-01
          0                 2           2            53    7     1       0.2611771266E-01      55    5    1         0.9829837351E-03      0.8251748765E-02
          0                 3           2            53    7     1      -0.2194454861E-02      55    5    1        -0.8863568619E-04      0.7943742815E-03
          0                 4           2            53    7     1       0.1652780842E-03      53    4    1        -0.8907160671E-05      0.6947513593E-04
          0                 5           1            53    7     1      -0.1101152427E-04      53    4    1         0.8311202873E-06      0.5288406271E-05
          0                 6           1            53    7     1       0.6368234102E-06      52    4    1        -0.5989435437E-07      0.3399708251E-06

    ------------------------------------------------
       NWT REQUIRED            6 OUTER ITERATIONS 
       AND A TOTAL OF         10 INNER ITERATIONS.
    ------------------------------------------------

 NO OUTPUT CONTROL FOR STRESS PERIOD    6   TIME STEP   20
 
 SOLVING FOR HEAD 
                                                   Max.-Head-Change                         Max.-Flux-Residual
  Residual-Control   Outer-Iter.   Inner-Iter.     Column Row Layer    Maximum-Head-Change  Column Row Layer    Maximum-Flux-Residual          L2-NORM 
          0                 1           2            55    5     1      -0.3055174115E+00      55    5    1        -0.9804685673E-02      0.8258407787E-01
          0                 2           2            53    7     1       0.2802788021E-01      53    7    1         0.9617860823E-03      0.8147369668E-02
          0                 3           2            53    7     1      -0.2341478953E-02      53    7    1        -0.8660418759E-04      0.7895460172E-03
          0                 4           2            53    7     1       0.1754567429E-03      53    4    1        -0.9541183724E-05      0.6949318934E-04
          0                 5           1            53    7     1      -0.1163980518E-04      53    4    1         0.8785056096E-06      0.5314694661E-05
          0                 6           1            53    7     1       0.6706872082E-06      52    4    1        -0.6282857257E-07      0.3424038819E-06

    ------------------------------------------------
       NWT REQUIRED            6 OUTER ITERATIONS 
       AND A TOTAL OF         10 INNER ITERATIONS.
    ------------------------------------------------

 NO OUTPUT CONTROL FOR STRESS PERIOD    6   TIME STEP   21
 
 SOLVING FOR HEAD 
                                                   Max.-Head-Change                         Max.-Flux-Residual
  Residual-Control   Outer-Iter.   Inner-Iter.     Column Row Layer    Maximum-Head-Change  Column Row Layer    Maximum-Flux-Residual          L2-NORM 
          0                 1           3            53    7     1      -0.3265278613E+00      55    5    1        -0.9565218077E-02      0.8130880461E-01
          0                 2           2            53    7     1       0.2998849139E-01      53    7    1         0.9444367208E-03      0.8037426217E-02
          0                 3           2            53    7     1      -0.2497737401E-02      53    7    1        -0.8504950711E-04      0.7825421976E-03
          0                 4           2            53    7     1       0.1864933761E-03      53    4    1        -0.9555733747E-05      0.6920165843E-04
          0                 5           1            53    7     1      -0.1232253599E-04      53    4    1         0.8811996146E-06      0.5313840768E-05
          0                 6           1            53    7     1       0.7067997425E-06      52    4    1        -0.6327747037E-07      0.3430753577E-06

    ------------------------------------------------
       NWT REQUIRED            6 OUTER ITERATIONS 
       AND A TOTAL OF         11 INNER ITERATIONS.
    ------------------------------------------------

 NO OUTPUT CONTROL FOR STRESS PERIOD    6   TIME STEP   22
 
 SOLVING FOR HEAD 
                                                   Max.-Head-Change                         Max.-Flux-Residual
  Residual-Control   Outer-Iter.   Inner-Iter.     Column Row Layer    Maximum-Head-Change  Column Row Layer    Maximum-Flux-Residual          L2-NORM 
          0                 1           3            55    5     1      -0.3528486034E+00      55    5    1        -0.9262066688E-02      0.8028630846E-01
          0                 2           2            53    7     1       0.3212919548E-01      53    7    1         0.9212640271E-03      0.7917755503E-02
          0                 3           2            53    7     1      -0.2664126793E-02      53    7    1        -0.8296706051E-04      0.7733493562E-03
          0                 4           2            53    7     1       0.1979145851E-03      53    4    1        -0.9263874876E-05      0.6871850510E-04
          0                 5           1            53    7     1      -0.1300624165E-04      53    4    1         0.8658952346E-06      0.5300403782E-05
          0                 6           1            53    7     1       0.7416829907E-06      52    4    1        -0.6271688235E-07      0.3429458045E-06

    ------------------------------------------------
       NWT REQUIRED            6 OUTER ITERATIONS 
       AND A TOTAL OF         11 INNER ITERATIONS.
    ------------------------------------------------

 NO OUTPUT CONTROL FOR STRESS PERIOD    6   TIME STEP   23
 
 SOLVING FOR HEAD 
                                                   Max.-Head-Change                         Max.-Flux-Residual
  Residual-Control   Outer-Iter.   Inner-Iter.     Column Row Layer    Maximum-Head-Change  Column Row Layer    Maximum-Flux-Residual          L2-NORM 
          0                 1           3            55    5     1      -0.3816405292E+00      55    5    1        -0.9127386780E-02      0.7940491635E-01
          0                 2           2            53    7     1       0.3448017135E-01      53    7    1         0.9009981423E-03      0.7839664661E-02
          0                 3           2            53    7     1      -0.2848560132E-02      59    4    1         0.8257150507E-04      0.7683423457E-03
          0                 4           2            53    7     1       0.2106902389E-03      53    4    1        -0.9178687396E-05      0.6854547033E-04
          0                 5           1            53    7     1      -0.1377768339E-04      53    4    1         0.8629112784E-06      0.5307184754E-05
          0                 6           1            53    7     1       0.7813272329E-06      52    4    1        -0.6283626952E-07      0.3438766030E-06

    ------------------------------------------------
       NWT REQUIRED            6 OUTER ITERATIONS 
       AND A TOTAL OF         11 INNER ITERATIONS.
    ------------------------------------------------

 NO OUTPUT CONTROL FOR STRESS PERIOD    6   TIME STEP   24
 
 SOLVING FOR HEAD 
                                                   Max.-Head-Change                         Max.-Flux-Residual
  Residual-Control   Outer-Iter.   Inner-Iter.     Column Row Layer    Maximum-Head-Change  Column Row Layer    Maximum-Flux-Residual          L2-NORM 
          0                 1           3            55    5     1      -0.4117545694E+00      55    5    1        -0.8970019237E-02      0.7844231108E-01
          0                 2           2            53    7     1       0.3698173765E-01      53    7    1         0.8818075263E-03      0.7763478151E-02
          0                 3           2            53    7     1      -0.3044538817E-02      58    4    1         0.9223069847E-04      0.7660260725E-03
          0                 4           2            53    7     1       0.2242463898E-03      58    4    1        -0.1003018836E-04      0.6872345450E-04
          0                 5           1            53    7     1      -0.1459489301E-04      53    4    1         0.8582572715E-06      0.5340891017E-05
          0                 6           1            53    7     1       0.8234776091E-06      52    4    1        -0.6281696940E-07      0.3462617656E-06

    ------------------------------------------------
       NWT REQUIRED            6 OUTER ITERATIONS 
       AND A TOTAL OF         11 INNER ITERATIONS.
    ------------------------------------------------

 NO OUTPUT CONTROL FOR STRESS PERIOD    6   TIME STEP   25
 
 SOLVING FOR HEAD 
                                                   Max.-Head-Change                         Max.-Flux-Residual
  Residual-Control   Outer-Iter.   Inner-Iter.     Column Row Layer    Maximum-Head-Change  Column Row Layer    Maximum-Flux-Residual          L2-NORM 
          0                 1           3            55    5     1      -0.4429765437E+00      55    5    1        -0.8804063440E-02      0.7743647003E-01
          0                 2           2            53    7     1       0.3959731429E-01      53    7    1         0.8624192217E-03      0.7687227751E-02
          0                 3           2            53    7     1      -0.3248184365E-02      57    4    1         0.9939044862E-04      0.7650082780E-03
          0                 4           2            53    7     1       0.2382643396E-03      57    4    1        -0.1115054996E-04      0.6908053167E-04
          0                 5           1            53    7     1      -0.1543736590E-04      57    4    1         0.9485282355E-06      0.5388918142E-05
          0                 6           1            53    7     1       0.8675348637E-06      57    4    1        -0.6267399577E-07      0.3491603866E-06

    ------------------------------------------------
       NWT REQUIRED            6 OUTER ITERATIONS 
       AND A TOTAL OF         11 INNER ITERATIONS.
    ------------------------------------------------

 NO OUTPUT CONTROL FOR STRESS PERIOD    6   TIME STEP   26
 
 SOLVING FOR HEAD 
                                                   Max.-Head-Change                         Max.-Flux-Residual
  Residual-Control   Outer-Iter.   Inner-Iter.     Column Row Layer    Maximum-Head-Change  Column Row Layer    Maximum-Flux-Residual          L2-NORM 
          0                 1           3            55    5     1      -0.4750298649E+00      55    5    1        -0.8612636760E-02      0.7641833505E-01
          0                 2           2            53    7     1       0.4226136960E-01      53    7    1         0.8422613467E-03      0.7613624966E-02
          0                 3           2            53    7     1      -0.3451690459E-02      56    4    1         0.1053747556E-03      0.7656357291E-03
          0                 4           2            53    7     1       0.2520810042E-03      56    4    1        -0.1218924281E-04      0.6965143668E-04
          0                 5           1            53    7     1      -0.1626067073E-04      56    4    1         0.1052928406E-05      0.5454091088E-05
          0                 6           1            53    7     1       0.9097976891E-06      56    4    1        -0.7205232677E-07      0.3532585826E-06

    ------------------------------------------------
       NWT REQUIRED            6 OUTER ITERATIONS 
       AND A TOTAL OF         11 INNER ITERATIONS.
    ------------------------------------------------

 NO OUTPUT CONTROL FOR STRESS PERIOD    6   TIME STEP   27
 
 SOLVING FOR HEAD 
                                                   Max.-Head-Change                         Max.-Flux-Residual
  Residual-Control   Outer-Iter.   Inner-Iter.     Column Row Layer    Maximum-Head-Change  Column Row Layer    Maximum-Flux-Residual          L2-NORM 
          0                 1           3            55    5     1      -0.5065559859E+00      55    5    1        -0.8404263342E-02      0.7530848754E-01
          0                 2           3            52    1     1       0.4322283910E-01      53    7    1         0.8205678015E-03      0.7583004393E-02
          0                 3           2            51    1     1      -0.3460423805E-02      53    4    1         0.1187733327E-03      0.7816430202E-03
          0                 4           2            51    1     1       0.2494069847E-03      52    4    1        -0.1385485768E-04      0.7208880991E-04
          0                 5           1            51    1     1      -0.1597680872E-04      52    4    1         0.1204076203E-05      0.5667071139E-05
          0                 6           1            51    1     1       0.8911174667E-06      52    4    1        -0.8280407560E-07      0.3661142371E-06

    ------------------------------------------------
       NWT REQUIRED            6 OUTER ITERATIONS 
       AND A TOTAL OF         12 INNER ITERATIONS.
    ------------------------------------------------

 NO OUTPUT CONTROL FOR STRESS PERIOD    6   TIME STEP   28
 
 SOLVING FOR HEAD 
                                                   Max.-Head-Change                         Max.-Flux-Residual
  Residual-Control   Outer-Iter.   Inner-Iter.     Column Row Layer    Maximum-Head-Change  Column Row Layer    Maximum-Flux-Residual          L2-NORM 
          0                 1           3            55    5     1      -0.5265207779E+00      55    5    1        -0.8163066014E-02      0.7381142735E-01
          0                 2           3            53    7     1       0.4403896751E-01      53    7    1         0.7937382726E-03      0.7553951330E-02
          0                 3           2            53    7     1      -0.3442970422E-02      54    4    1         0.1235283352E-03      0.7920301275E-03
          0                 4           2            53    7     1       0.2437986107E-03      54    4    1        -0.1367308646E-04      0.7352667924E-04
          0                 5           1            53    7     1      -0.1548912015E-04      52    4    1         0.1158050811E-05      0.5786002295E-05
          0                 6           1            53    7     1       0.8800062480E-06      52    4    1        -0.7853830297E-07      0.3727407061E-06

    ------------------------------------------------
       NWT REQUIRED            6 OUTER ITERATIONS 
       AND A TOTAL OF         12 INNER ITERATIONS.
    ------------------------------------------------

 NO OUTPUT CONTROL FOR STRESS PERIOD    6   TIME STEP   29
 
 SOLVING FOR HEAD 
                                                   Max.-Head-Change                         Max.-Flux-Residual
  Residual-Control   Outer-Iter.   Inner-Iter.     Column Row Layer    Maximum-Head-Change  Column Row Layer    Maximum-Flux-Residual          L2-NORM 
          0                 1           3            55    5     1      -0.5688348491E+00      55    5    1        -0.7735606841E-02      0.7242280008E-01
          0                 2           3            53    7     1       0.4646683760E-01      53    7    1         0.7491973483E-03      0.7328882992E-02
          0                 3           2            53    7     1      -0.3597731928E-02      50    4    1         0.1133072241E-03      0.7693790668E-03
          0                 4           2            53    7     1       0.2518932760E-03      50    4    1        -0.1276991662E-04      0.7185301380E-04
          0                 5           1            53    7     1      -0.1581423358E-04      55    4    1         0.1096207712E-05      0.5688990062E-05
          0                 6           1            54    7     1       0.8959503152E-06      52    4    1        -0.7421353221E-07      0.3672549724E-06

    ------------------------------------------------
       NWT REQUIRED            6 OUTER ITERATIONS 
       AND A TOTAL OF         12 INNER ITERATIONS.
    ------------------------------------------------

 NO OUTPUT CONTROL FOR STRESS PERIOD    6   TIME STEP   30



 STREAM LISTING     PERIOD      6   STEP       30

 LAYER ROW COL. STREAM  RCH.   FLOW INTO    STREAM     FLOW OUT OF   OVRLND.    DIRECT     STREAM      STREAM      STREAM     STREAM  STREAMBED   FLOW TO   CHNG. UNSAT. 
                SEG.NO.  NO.   STRM. RCH.    LOSS       STRM. RCH.   RUNOFF     PRECIP       ET         HEAD        DEPTH      WIDTH  CONDCTNC.   WAT. TAB.

   1    4    1     1     1    3.5610E+01  8.9051E-03   3.5601E+01  0.000E+00  0.000E+00  0.000E+00  1.44129E+02  4.279E+00  9.115E+00  1.863E-03  8.449E-03  4.563E-04
   1    4    2     1     2    3.5601E+01  8.9031E-03   3.5592E+01  0.000E+00  0.000E+00  0.000E+00  1.43828E+02  4.278E+00  9.114E+00  1.863E-03  8.448E-03  4.556E-04
   1    4    3     1     3    3.5592E+01  8.9011E-03   3.5583E+01  0.000E+00  0.000E+00  0.000E+00  1.43528E+02  4.278E+00  9.112E+00  1.863E-03  8.446E-03  4.554E-04
   1    4    4     1     4    3.5583E+01  8.8991E-03   3.5574E+01  0.000E+00  0.000E+00  0.000E+00  1.43228E+02  4.278E+00  9.110E+00  1.863E-03  8.443E-03  4.559E-04
   1    4    5     1     5    3.5574E+01  8.8970E-03   3.5565E+01  0.000E+00  0.000E+00  0.000E+00  1.42927E+02  4.277E+00  9.109E+00  1.862E-03  8.440E-03  4.570E-04
   1    4    6     1     6    3.5565E+01  8.8950E-03   3.5557E+01  0.000E+00  0.000E+00  0.000E+00  1.42627E+02  4.277E+00  9.107E+00  1.862E-03  8.436E-03  4.586E-04
   1    4    7     1     7    3.5557E+01  8.8930E-03   3.5548E+01  0.000E+00  0.000E+00  0.000E+00  1.42326E+02  4.276E+00  9.105E+00  1.862E-03  8.432E-03  4.609E-04
   1    4    8     1     8    3.5548E+01  8.8910E-03   3.5539E+01  0.000E+00  0.000E+00  0.000E+00  1.42026E+02  4.276E+00  9.104E+00  1.862E-03  8.427E-03  4.638E-04
   1    4    9     1     9    3.5539E+01  8.8890E-03   3.5530E+01  0.000E+00  0.000E+00  0.000E+00  1.41726E+02  4.276E+00  9.102E+00  1.861E-03  8.422E-03  4.673E-04
   1    4   10     1    10    3.5530E+01  8.8869E-03   3.5521E+01  0.000E+00  0.000E+00  0.000E+00  1.41425E+02  4.275E+00  9.100E+00  1.861E-03  8.415E-03  4.714E-04
   1    4   11     1    11    3.5521E+01  8.8849E-03   3.5512E+01  0.000E+00  0.000E+00  0.000E+00  1.41125E+02  4.275E+00  9.099E+00  1.861E-03  8.409E-03  4.762E-04
   1    4   12     1    12    3.5512E+01  8.8829E-03   3.5503E+01  0.000E+00  0.000E+00  0.000E+00  1.40824E+02  4.274E+00  9.097E+00  1.861E-03  8.401E-03  4.816E-04
   1    4   13     1    13    3.5503E+01  8.8809E-03   3.5494E+01  0.000E+00  0.000E+00  0.000E+00  1.40524E+02  4.274E+00  9.095E+00  1.860E-03  8.393E-03  4.876E-04
   1    4   14     1    14    3.5494E+01  8.8789E-03   3.5486E+01  0.000E+00  0.000E+00  0.000E+00  1.40223E+02  4.273E+00  9.094E+00  1.860E-03  8.385E-03  4.942E-04
   1    4   15     1    15    3.5486E+01  8.8768E-03   3.5477E+01  0.000E+00  0.000E+00  0.000E+00  1.39923E+02  4.273E+00  9.092E+00  1.860E-03  8.375E-03  5.015E-04
   1    4   16     1    16    3.5477E+01  8.8748E-03   3.5468E+01  0.000E+00  0.000E+00  0.000E+00  1.39623E+02  4.273E+00  9.090E+00  1.860E-03  8.365E-03  5.094E-04
   1    4   17     1    17    3.5468E+01  8.8728E-03   3.5459E+01  0.000E+00  0.000E+00  0.000E+00  1.39322E+02  4.272E+00  9.089E+00  1.859E-03  8.355E-03  5.178E-04
   1    4   18     1    18    3.5459E+01  8.8708E-03   3.5450E+01  0.000E+00  0.000E+00  0.000E+00  1.39022E+02  4.272E+00  9.087E+00  1.859E-03  8.344E-03  5.268E-04
   1    4   19     1    19    3.5450E+01  8.8688E-03   3.5441E+01  0.000E+00  0.000E+00  0.000E+00  1.38721E+02  4.271E+00  9.085E+00  1.859E-03  8.332E-03  5.363E-04
   1    4   20     1    20    3.5441E+01  8.8667E-03   3.5432E+01  0.000E+00  0.000E+00  0.000E+00  1.38421E+02  4.271E+00  9.084E+00  1.858E-03  8.321E-03  5.462E-04
   1    4   21     1    21    3.5432E+01  8.8647E-03   3.5423E+01  0.000E+00  0.000E+00  0.000E+00  1.38121E+02  4.271E+00  9.082E+00  1.858E-03  8.308E-03  5.566E-04
   1    4   22     1    22    3.5423E+01  8.8627E-03   3.5415E+01  0.000E+00  0.000E+00  0.000E+00  1.37820E+02  4.270E+00  9.080E+00  1.858E-03  8.295E-03  5.673E-04
   1    4   23     1    23    3.5415E+01  8.8607E-03   3.5406E+01  0.000E+00  0.000E+00  0.000E+00  1.37520E+02  4.270E+00  9.079E+00  1.858E-03  8.282E-03  5.783E-04
   1    4   24     1    24    3.5406E+01  8.8587E-03   3.5397E+01  0.000E+00  0.000E+00  0.000E+00  1.37219E+02  4.269E+00  9.077E+00  1.857E-03  8.269E-03  5.894E-04
   1    4   25     1    25    3.5397E+01  8.8567E-03   3.5388E+01  0.000E+00  0.000E+00  0.000E+00  1.36919E+02  4.269E+00  9.075E+00  1.857E-03  8.256E-03  6.006E-04
   1    4   26     1    26    3.5388E+01  8.8547E-03   3.5379E+01  0.000E+00  0.000E+00  0.000E+00  1.36618E+02  4.268E+00  9.074E+00  1.857E-03  8.243E-03  6.119E-04
   1    4   27     1    27    3.5379E+01  8.8526E-03   3.5370E+01  0.000E+00  0.000E+00  0.000E+00  1.36318E+02  4.268E+00  9.072E+00  1.857E-03  8.230E-03  6.230E-04
   1    4   28     1    28    3.5370E+01  8.8506E-03   3.5361E+01  0.000E+00  0.000E+00  0.000E+00  1.36018E+02  4.268E+00  9.070E+00  1.856E-03  8.217E-03  6.340E-04
   1    4   29     1    29    3.5361E+01  8.8486E-03   3.5353E+01  0.000E+00  0.000E+00  0.000E+00  1.35717E+02  4.267E+00  9.069E+00  1.856E-03  8.204E-03  6.447E-04
   1    4   30     1    30    3.5353E+01  8.8466E-03   3.5344E+01  0.000E+00  0.000E+00  0.000E+00  1.35417E+02  4.267E+00  9.067E+00  1.856E-03  8.192E-03  6.551E-04
   1    4   31     1    31    3.5344E+01  8.8446E-03   3.5335E+01  0.000E+00  0.000E+00  0.000E+00  1.35116E+02  4.266E+00  9.066E+00  1.856E-03  8.179E-03  6.652E-04
   1    4   32     1    32    3.5335E+01  8.8426E-03   3.5326E+01  0.000E+00  0.000E+00  0.000E+00  1.34816E+02  4.266E+00  9.064E+00  1.855E-03  8.168E-03  6.750E-04
   1    4   33     1    33    3.5326E+01  8.8406E-03   3.5317E+01  0.000E+00  0.000E+00  0.000E+00  1.34516E+02  4.266E+00  9.062E+00  1.855E-03  8.156E-03  6.847E-04
   1    4   34     1    34    3.5317E+01  8.8385E-03   3.5308E+01  0.000E+00  0.000E+00  0.000E+00  1.34215E+02  4.265E+00  9.061E+00  1.855E-03  8.144E-03  6.944E-04
   1    4   35     1    35    3.5308E+01  8.8365E-03   3.5300E+01  0.000E+00  0.000E+00  0.000E+00  1.33915E+02  4.265E+00  9.059E+00  1.855E-03  8.132E-03  7.043E-04
   1    4   36     1    36    3.5300E+01  8.8345E-03   3.5291E+01  0.000E+00  0.000E+00  0.000E+00  1.33614E+02  4.264E+00  9.057E+00  1.854E-03  8.120E-03  7.148E-04
   1    4   37     1    37    3.5291E+01  8.8325E-03   3.5282E+01  0.000E+00  0.000E+00  0.000E+00  1.33314E+02  4.264E+00  9.056E+00  1.854E-03  8.106E-03  7.264E-04
   1    4   38     1    38    3.5282E+01  8.8305E-03   3.5273E+01  0.000E+00  0.000E+00  0.000E+00  1.33013E+02  4.263E+00  9.054E+00  1.854E-03  8.091E-03  7.397E-04
   1    4   39     1    39    3.5273E+01  8.8285E-03   3.5264E+01  0.000E+00  0.000E+00  0.000E+00  1.32713E+02  4.263E+00  9.052E+00  1.854E-03  8.073E-03  7.554E-04
   1    4   40     1    40    3.5264E+01  8.8265E-03   3.5255E+01  0.000E+00  0.000E+00  0.000E+00  1.32413E+02  4.263E+00  9.051E+00  1.853E-03  8.052E-03  7.743E-04
   1    4   41     1    41    3.5255E+01  8.8245E-03   3.5247E+01  0.000E+00  0.000E+00  0.000E+00  1.32112E+02  4.262E+00  9.049E+00  1.853E-03  8.027E-03  7.973E-04
   1    4   42     1    42    3.5247E+01  8.8225E-03   3.5238E+01  0.000E+00  0.000E+00  0.000E+00  1.31812E+02  4.262E+00  9.047E+00  1.853E-03  7.997E-03  8.253E-04
   1    4   43     1    43    3.5238E+01  8.8204E-03   3.5229E+01  0.000E+00  0.000E+00  0.000E+00  1.31511E+02  4.261E+00  9.046E+00  1.852E-03  7.961E-03  8.591E-04
   1    4   44     1    44    3.5229E+01  8.8184E-03   3.5220E+01  0.000E+00  0.000E+00  0.000E+00  1.31211E+02  4.261E+00  9.044E+00  1.852E-03  7.919E-03  8.994E-04
   1    4   45     1    45    3.5220E+01  8.8164E-03   3.5211E+01  0.000E+00  0.000E+00  0.000E+00  1.30911E+02  4.261E+00  9.042E+00  1.852E-03  7.870E-03  9.468E-04
   1    4   46     1    46    3.5211E+01  8.8144E-03   3.5202E+01  0.000E+00  0.000E+00  0.000E+00  1.30610E+02  4.260E+00  9.041E+00  1.852E-03  7.813E-03  1.002E-03
   1    4   47     1    47    3.5202E+01  8.8124E-03   3.5194E+01  0.000E+00  0.000E+00  0.000E+00  1.30310E+02  4.260E+00  9.039E+00  1.851E-03  7.749E-03  1.064E-03
   1    4   48     1    48    3.5194E+01  8.8104E-03   3.5185E+01  0.000E+00  0.000E+00  0.000E+00  1.30009E+02  4.259E+00  9.037E+00  1.851E-03  7.677E-03  1.134E-03
   1    4   49     1    49    3.5185E+01  8.8084E-03   3.5176E+01  0.000E+00  0.000E+00  0.000E+00  1.29709E+02  4.259E+00  9.036E+00  1.851E-03  7.596E-03  1.212E-03
   1    4   50     1    50    3.5176E+01  8.8064E-03   3.5167E+01  0.000E+00  0.000E+00  0.000E+00  1.29408E+02  4.258E+00  9.034E+00  1.851E-03  7.509E-03  1.298E-03
   1    4   51     1    51    3.5167E+01  8.8044E-03   3.5158E+01  0.000E+00  0.000E+00  0.000E+00  1.29108E+02  4.258E+00  9.032E+00  1.850E-03  7.491E-03  1.313E-03
   1    4   52     1    52    3.5158E+01  8.8024E-03   3.5150E+01  0.000E+00  0.000E+00  0.000E+00  1.28808E+02  4.258E+00  9.031E+00  1.850E-03  7.476E-03  1.326E-03
   1    4   53     1    53    3.5150E+01  8.8004E-03   3.5141E+01  0.000E+00  0.000E+00  0.000E+00  1.28507E+02  4.257E+00  9.029E+00  1.850E-03  7.471E-03  1.329E-03
   1    4   54     1    54    3.5141E+01  8.7984E-03   3.5132E+01  0.000E+00  0.000E+00  0.000E+00  1.28207E+02  4.257E+00  9.027E+00  1.850E-03  7.472E-03  1.326E-03
   1    4   55     1    55    3.5132E+01  8.7964E-03   3.5123E+01  0.000E+00  0.000E+00  0.000E+00  1.27906E+02  4.256E+00  9.026E+00  1.849E-03  7.476E-03  1.321E-03
   1    4   56     1    56    3.5123E+01  8.7944E-03   3.5114E+01  0.000E+00  0.000E+00  0.000E+00  1.27606E+02  4.256E+00  9.024E+00  1.849E-03  7.563E-03  1.231E-03
   1    4   57     1    57    3.5114E+01  8.7924E-03   3.5106E+01  0.000E+00  0.000E+00  0.000E+00  1.27306E+02  4.256E+00  9.022E+00  1.849E-03  7.638E-03  1.154E-03
   1    4   58     1    58    3.5106E+01  8.7904E-03   3.5097E+01  0.000E+00  0.000E+00  0.000E+00  1.27005E+02  4.255E+00  9.021E+00  1.849E-03  7.703E-03  1.087E-03
   1    4   59     1    59    3.5097E+01  8.7883E-03   3.5088E+01  0.000E+00  0.000E+00  0.000E+00  1.26705E+02  4.255E+00  9.019E+00  1.848E-03  7.761E-03  1.027E-03
   1    4   60     1    60    3.5088E+01  8.7863E-03   3.5079E+01  0.000E+00  0.000E+00  0.000E+00  1.26404E+02  4.254E+00  9.017E+00  1.848E-03  7.811E-03  9.756E-04
   1    4   61     1    61    3.5079E+01  8.7843E-03   3.5070E+01  0.000E+00  0.000E+00  0.000E+00  1.26104E+02  4.254E+00  9.016E+00  1.848E-03  7.853E-03  9.313E-04
   1    4   62     1    62    3.5070E+01  8.7823E-03   3.5062E+01  0.000E+00  0.000E+00  0.000E+00  1.25803E+02  4.253E+00  9.014E+00  1.848E-03  7.888E-03  8.942E-04
   1    4   63     1    63    3.5062E+01  8.7803E-03   3.5053E+01  0.000E+00  0.000E+00  0.000E+00  1.25503E+02  4.253E+00  9.012E+00  1.847E-03  7.917E-03  8.638E-04
   1    4   64     1    64    3.5053E+01  8.7783E-03   3.5044E+01  0.000E+00  0.000E+00  0.000E+00  1.25203E+02  4.253E+00  9.011E+00  1.847E-03  7.939E-03  8.393E-04
   1    4   65     1    65    3.5044E+01  8.7763E-03   3.5035E+01  0.000E+00  0.000E+00  0.000E+00  1.24902E+02  4.252E+00  9.009E+00  1.847E-03  7.956E-03  8.201E-04
   1    4   66     1    66    3.5035E+01  8.7743E-03   3.5027E+01  0.000E+00  0.000E+00  0.000E+00  1.24602E+02  4.252E+00  9.007E+00  1.847E-03  7.969E-03  8.051E-04
   1    4   67     1    67    3.5027E+01  8.7723E-03   3.5018E+01  0.000E+00  0.000E+00  0.000E+00  1.24301E+02  4.251E+00  9.006E+00  1.846E-03  7.979E-03  7.934E-04
   1    4   68     1    68    3.5018E+01  8.7703E-03   3.5009E+01  0.000E+00  0.000E+00  0.000E+00  1.24001E+02  4.251E+00  9.004E+00  1.846E-03  7.986E-03  7.844E-04
   1    4   69     1    69    3.5009E+01  8.7683E-03   3.5000E+01  0.000E+00  0.000E+00  0.000E+00  1.23701E+02  4.251E+00  9.002E+00  1.846E-03  7.991E-03  7.771E-04
   1    4   70     1    70    3.5000E+01  8.7663E-03   3.4992E+01  0.000E+00  0.000E+00  0.000E+00  1.23400E+02  4.250E+00  9.001E+00  1.845E-03  7.995E-03  7.709E-04
   1    4   71     1    71    3.4992E+01  8.7643E-03   3.4983E+01  0.000E+00  0.000E+00  0.000E+00  1.23100E+02  4.250E+00  8.999E+00  1.845E-03  7.999E-03  7.654E-04
   1    4   72     1    72    3.4983E+01  8.7623E-03   3.4974E+01  0.000E+00  0.000E+00  0.000E+00  1.22799E+02  4.249E+00  8.997E+00  1.845E-03  8.002E-03  7.601E-04
   1    4   73     1    73    3.4974E+01  8.7603E-03   3.4965E+01  0.000E+00  0.000E+00  0.000E+00  1.22499E+02  4.249E+00  8.996E+00  1.845E-03  8.006E-03  7.546E-04
   1    4   74     1    74    3.4965E+01  8.7583E-03   3.4956E+01  0.000E+00  0.000E+00  0.000E+00  1.22199E+02  4.249E+00  8.994E+00  1.844E-03  8.009E-03  7.488E-04
   1    4   75     1    75    3.4956E+01  8.7563E-03   3.4948E+01  0.000E+00  0.000E+00  0.000E+00  1.21898E+02  4.248E+00  8.992E+00  1.844E-03  8.014E-03  7.426E-04
   1    4   76     1    76    3.4948E+01  8.7543E-03   3.4939E+01  0.000E+00  0.000E+00  0.000E+00  1.21598E+02  4.248E+00  8.991E+00  1.844E-03  8.019E-03  7.357E-04
   1    4   77     1    77    3.4939E+01  8.7523E-03   3.4930E+01  0.000E+00  0.000E+00  0.000E+00  1.21297E+02  4.247E+00  8.989E+00  1.844E-03  8.024E-03  7.281E-04
   1    4   78     1    78    3.4930E+01  8.7503E-03   3.4921E+01  0.000E+00  0.000E+00  0.000E+00  1.20997E+02  4.247E+00  8.987E+00  1.843E-03  8.030E-03  7.199E-04
   1    4   79     1    79    3.4921E+01  8.7483E-03   3.4913E+01  0.000E+00  0.000E+00  0.000E+00  1.20696E+02  4.246E+00  8.986E+00  1.843E-03  8.037E-03  7.111E-04
   1    4   80     1    80    3.4913E+01  8.7463E-03   3.4904E+01  0.000E+00  0.000E+00  0.000E+00  1.20396E+02  4.246E+00  8.984E+00  1.843E-03  8.045E-03  7.016E-04
   1    4   81     1    81    3.4904E+01  8.7444E-03   3.4895E+01  0.000E+00  0.000E+00  0.000E+00  1.20096E+02  4.246E+00  8.982E+00  1.843E-03  8.053E-03  6.914E-04
   1    4   82     1    82    3.4895E+01  8.7424E-03   3.4886E+01  0.000E+00  0.000E+00  0.000E+00  1.19795E+02  4.245E+00  8.981E+00  1.842E-03  8.062E-03  6.807E-04
   1    4   83     1    83    3.4886E+01  8.7404E-03   3.4878E+01  0.000E+00  0.000E+00  0.000E+00  1.19495E+02  4.245E+00  8.979E+00  1.842E-03  8.071E-03  6.695E-04
   1    4   84     1    84    3.4878E+01  8.7384E-03   3.4869E+01  0.000E+00  0.000E+00  0.000E+00  1.19194E+02  4.244E+00  8.977E+00  1.842E-03  8.081E-03  6.577E-04
   1    4   85     1    85    3.4869E+01  8.7364E-03   3.4860E+01  0.000E+00  0.000E+00  0.000E+00  1.18894E+02  4.244E+00  8.976E+00  1.842E-03  8.091E-03  6.455E-04
   1    4   86     1    86    3.4860E+01  8.7344E-03   3.4852E+01  0.000E+00  0.000E+00  0.000E+00  1.18594E+02  4.244E+00  8.974E+00  1.841E-03  8.102E-03  6.328E-04
   1    4   87     1    87    3.4852E+01  8.7324E-03   3.4843E+01  0.000E+00  0.000E+00  0.000E+00  1.18293E+02  4.243E+00  8.972E+00  1.841E-03  8.113E-03  6.197E-04
   1    4   88     1    88    3.4843E+01  8.7304E-03   3.4834E+01  0.000E+00  0.000E+00  0.000E+00  1.17993E+02  4.243E+00  8.971E+00  1.841E-03  8.124E-03  6.063E-04
   1    4   89     1    89    3.4834E+01  8.7284E-03   3.4825E+01  0.000E+00  0.000E+00  0.000E+00  1.17692E+02  4.242E+00  8.969E+00  1.841E-03  8.136E-03  5.925E-04
   1    4   90     1    90    3.4825E+01  8.7264E-03   3.4817E+01  0.000E+00  0.000E+00  0.000E+00  1.17392E+02  4.242E+00  8.968E+00  1.840E-03  8.148E-03  5.786E-04
   1    4   91     1    91    3.4817E+01  8.7244E-03   3.4808E+01  0.000E+00  0.000E+00  0.000E+00  1.17091E+02  4.241E+00  8.966E+00  1.840E-03  8.160E-03  5.645E-04
   1    4   92     1    92    3.4808E+01  8.7224E-03   3.4799E+01  0.000E+00  0.000E+00  0.000E+00  1.16791E+02  4.241E+00  8.964E+00  1.840E-03  8.172E-03  5.503E-04
   1    4   93     1    93    3.4799E+01  8.7204E-03   3.4790E+01  0.000E+00  0.000E+00  0.000E+00  1.16491E+02  4.241E+00  8.963E+00  1.840E-03  8.184E-03  5.362E-04
   1    4   94     1    94    3.4790E+01  8.7184E-03   3.4782E+01  0.000E+00  0.000E+00  0.000E+00  1.16190E+02  4.240E+00  8.961E+00  1.839E-03  8.196E-03  5.223E-04
   1    4   95     1    95    3.4782E+01  8.7164E-03   3.4773E+01  0.000E+00  0.000E+00  0.000E+00  1.15890E+02  4.240E+00  8.959E+00  1.839E-03  8.208E-03  5.085E-04
   1    4   96     1    96    3.4773E+01  8.7144E-03   3.4764E+01  0.000E+00  0.000E+00  0.000E+00  1.15589E+02  4.239E+00  8.958E+00  1.839E-03  8.219E-03  4.951E-04
   1    4   97     1    97    3.4764E+01  8.7125E-03   3.4756E+01  0.000E+00  0.000E+00  0.000E+00  1.15289E+02  4.239E+00  8.956E+00  1.838E-03  8.231E-03  4.819E-04
   1    4   98     1    98    3.4756E+01  8.7105E-03   3.4747E+01  0.000E+00  0.000E+00  0.000E+00  1.14989E+02  4.239E+00  8.954E+00  1.838E-03  8.242E-03  4.689E-04
   1    4   99     1    99    3.4747E+01  8.7085E-03   3.4738E+01  0.000E+00  0.000E+00  0.000E+00  1.14688E+02  4.238E+00  8.953E+00  1.838E-03  8.253E-03  4.559E-04
   1    4  100     1   100    3.4738E+01  8.7065E-03   3.4729E+01  0.000E+00  0.000E+00  0.000E+00  1.14388E+02  4.238E+00  8.951E+00  1.838E-03  8.264E-03  4.427E-04



1
  VOLUMETRIC BUDGET FOR UNSATURATED ZONE BENEATH STREAMS AT END OF TIME STEP    30 STRESS PERIOD   6
  ------------------------------------------------------------------------------------------------

    CUMULATIVE VOLUMES             L**3    RATES FOR THIS TIME STEP         L**3/T
    ------------------                     ------------------------


          STREAM LOSS =      5573343.0000            STREAM LOSS =            0.8806
    CHANGE IN STORAGE =      1603602.1250      CHANGE IN STORAGE =        7.2051E-02
       RECHARGE TO GW =      3972651.0000         RECHARGE TO GW =            0.8085

             TOTAL IN =      5573343.0000               TOTAL IN =            0.8806

            TOTAL OUT =      5576253.0000              TOTAL OUT =            0.8806

             IN - OUT =        -2910.0000               IN - OUT =       -4.1723E-07

  PERCENT DISCREPANCY =           -0.01      PERCENT DISCREPANCY =            -0.00



1
  VOLUMETRIC BUDGET FOR ENTIRE MODEL AT END OF TIME STEP   30, STRESS PERIOD   6
  ------------------------------------------------------------------------------

     CUMULATIVE VOLUMES      L**3       RATES FOR THIS TIME STEP      L**3/T
     ------------------                 ------------------------

           IN:                                      IN:
           ---                                      ---
             STORAGE     =    36618900.0000               STORAGE     =           1.3337
       CONSTANT HEAD     =           0.0000         CONSTANT HEAD     =           0.0000
               WELLS     =           0.0000                 WELLS     =           0.0000
     HEAD DEP BOUNDS     =           0.0000       HEAD DEP BOUNDS     =           0.0000
      STREAM LEAKAGE     =     3972645.7500        STREAM LEAKAGE     =           0.8085

                TOTAL IN =    40591544.0000                  TOTAL IN =           2.1422

          OUT:                                     OUT:
          ----                                     ----
             STORAGE     =      804263.8750               STORAGE     =       8.8117E-02
       CONSTANT HEAD     =           0.0000         CONSTANT HEAD     =           0.0000
               WELLS     =    30792960.0000                 WELLS     =           1.7200
     HEAD DEP BOUNDS     =     8994311.0000       HEAD DEP BOUNDS     =           0.3340
      STREAM LEAKAGE     =           0.0000        STREAM LEAKAGE     =           0.0000

               TOTAL OUT =    40591536.0000                 TOTAL OUT =           2.1422

                IN - OUT =           8.0000                  IN - OUT =      -2.3842E-07

     PERCENT DISCREPANCY =           0.00         PERCENT DISCREPANCY =          -0.00






         TIME SUMMARY AT END OF TIME STEP   30 IN STRESS PERIOD    6
                    SECONDS     MINUTES      HOURS       DAYS        YEARS
                    -----------------------------------------------------------
   TIME STEP LENGTH 2.49961E+05  4166.0      69.434      2.8931     7.92080E-03
 STRESS PERIOD TIME 2.59200E+06  43200.      720.00      30.000     8.21355E-02
         TOTAL TIME 1.55520E+07 2.59200E+05  4320.0      180.00     0.49281    
1
1
                            STRESS PERIOD NO.    7, LENGTH =   2592000.    
                            -----------------------------------------------

                              NUMBER OF TIME STEPS =    30

                               MULTIPLIER FOR DELT =     1.100

                            INITIAL TIME STEP SIZE =   15757.40    

 REUSING NON-PARAMETER WELLS FROM LAST STRESS PERIOD

      1 WELL 

 REUSING NON-PARAMETER GHB CELLS FROM LAST STRESS PERIOD

      7 GHB CELLS



 CLASSIFICATION & COUNT OF STREAM SEGMENTS BASED ON SOURCE OF INFLOW:

                HEADWATER     DIVERSION     RECEIVES TRIBUTARY FLOW
                ---------     ---------     -----------------------
                     1              0               0



                    INPUT DATA FOR EACH STREAM SEGMENT
 ---------------------------------------------------------------------------------------------

 SEGMENT    SEG.     INFLOW   OVERLAND   STREAM    STREAM   ICALC  OUTFLOW  DIVERSION PRIORITY
    NO.    LENGTH     RATE     RUNOFF      ET       PPT.    METH.  TO SEG.  FROM SEG.    NO.

      1  2.000E+04 4.407E+01 0.000E+00 0.000E+00 0.000E+00    2        0        0        0


         STREAMBED PROPERTIES AND STREAM DIMENSIONS

 SEGMENT     BED HYD. COND.      BED THICKNESS     ELEV.-TOP OF BED     WIDTH OF STREAM     DEPTH OF STREAM    STREAM ROUGHNESS
    No.     UPPER     LOWER     UPPER     LOWER     UPPER     LOWER     UPPER     LOWER     UPPER     LOWER   CHANNEL      BANK

     1  3.500E-07 3.500E-07                                                                                 3.000E-02 4.000E-02

  EIGHT POINT CROSS-SECTION DATA FOR SEGMENTS WITH ICALC = 2
    X VALUES X VALUES START FROM LEFT SIDE LOOKING DOWNSTREAM

     SEGMENT NO.        X1        X2        X3        X4        X5        X6        X7        X8
            1      0.000E+00 2.000E+00 4.000E+00 6.000E+00 8.000E+00 1.000E+01 1.200E+01 1.400E+01

    Z VALUES ARE RELATIVE TO STREAMBED ELEVATION

     SEGMENT NO.          Z1        Z2        Z3        Z4        Z5        Z6        Z7        Z8
            1      6.000E+00 4.500E+00 3.500E+00 0.000E+00 3.000E-01 3.500E+00 4.500E+00 6.000E+00



 
 SOLVING FOR HEAD 
                                                   Max.-Head-Change                         Max.-Flux-Residual
  Residual-Control   Outer-Iter.   Inner-Iter.     Column Row Layer    Maximum-Head-Change  Column Row Layer    Maximum-Flux-Residual          L2-NORM 
          0                 1           2            55    5     1      -0.1270682418E+01      55    5    1        -0.4775685089E+00      0.6789350970E+00
          0                 2           2            55    5     1       0.1166083209E+00      55    5    1         0.4640975053E-01      0.6686234704E-01
          0                 3           2            55    5     1      -0.1041275070E-01      55    5    1        -0.4185170455E-02      0.6031080168E-02
          0                 4           2            55    5     1       0.8263851248E-03      55    5    1         0.3351663073E-03      0.4830188239E-03
          0                 5           1            55    5     1      -0.5756815725E-04      55    5    1        -0.2356228152E-04      0.3395652977E-04
          0                 6           1            55    5     1       0.3456804069E-05      55    5    1         0.1427779134E-05      0.2057626478E-05
          0                 7           1            55    5     1      -0.1746678206E-06      55    5    1        -0.7280259684E-07      0.1049184389E-06

    ------------------------------------------------
       NWT REQUIRED            7 OUTER ITERATIONS 
       AND A TOTAL OF         11 INNER ITERATIONS.
    ------------------------------------------------

 NO OUTPUT CONTROL FOR STRESS PERIOD    7   TIME STEP    1
 
 SOLVING FOR HEAD 
                                                   Max.-Head-Change                         Max.-Flux-Residual
  Residual-Control   Outer-Iter.   Inner-Iter.     Column Row Layer    Maximum-Head-Change  Column Row Layer    Maximum-Flux-Residual          L2-NORM 
          0                 1           2            55    5     1      -0.8599225138E+00      55    5    1        -0.2658926177E+00      0.4057630091E+00
          0                 2           2            55    5     1       0.7720802631E-01      55    5    1         0.2580058208E-01      0.3909851949E-01
          0                 3           2            55    5     1      -0.6890456099E-02      55    5    1        -0.2327831906E-02      0.3533295644E-02
          0                 4           2            55    5     1       0.5467682824E-03      55    5    1         0.1864135298E-03      0.2830837712E-03
          0                 5           1            55    5     1      -0.3808899414E-04      55    5    1        -0.1310497886E-04      0.1990179718E-04
          0                 6           1            55    5     1       0.2287134830E-05      55    5    1         0.7941085354E-06      0.1205966985E-05
          0                 7           1            55    5     1      -0.1155658944E-06      55    5    1        -0.4049167313E-07      0.6149221515E-07

    ------------------------------------------------
       NWT REQUIRED            7 OUTER ITERATIONS 
       AND A TOTAL OF         11 INNER ITERATIONS.
    ------------------------------------------------

 NO OUTPUT CONTROL FOR STRESS PERIOD    7   TIME STEP    2
 
 SOLVING FOR HEAD 
                                                   Max.-Head-Change                         Max.-Flux-Residual
  Residual-Control   Outer-Iter.   Inner-Iter.     Column Row Layer    Maximum-Head-Change  Column Row Layer    Maximum-Flux-Residual          L2-NORM 
          0                 1           2            55    5     1      -0.6400689375E+00      55    5    1        -0.1638713339E+00      0.2947142917E+00
          0                 2           2            55    5     1       0.5678504452E-01      55    5    1         0.1596621997E-01      0.2816160479E-01
          0                 3           2            55    5     1      -0.5059313440E-02      55    5    1        -0.1440274234E-02      0.2555216456E-02
          0                 4           2            55    5     1       0.4013418248E-03      55    5    1         0.1153398198E-03      0.2049933761E-03
          0                 5           1            55    5     1      -0.2795698904E-04      55    5    1        -0.8108441945E-05      0.1441437788E-04
          0                 6           1            55    5     1       0.1678734010E-05      55    5    1         0.4913387430E-06      0.8734574349E-06
          0                 7           1            55    5     1      -0.8482411207E-07      55    5    1        -0.2505341268E-07      0.4453746260E-07

    ------------------------------------------------
       NWT REQUIRED            7 OUTER ITERATIONS 
       AND A TOTAL OF         11 INNER ITERATIONS.
    ------------------------------------------------

 NO OUTPUT CONTROL FOR STRESS PERIOD    7   TIME STEP    3
 
 SOLVING FOR HEAD 
                                                   Max.-Head-Change                         Max.-Flux-Residual
  Residual-Control   Outer-Iter.   Inner-Iter.     Column Row Layer    Maximum-Head-Change  Column Row Layer    Maximum-Flux-Residual          L2-NORM 
          0                 1           2            55    5     1      -0.5147842136E+00      55    5    1        -0.1110425708E+00      0.2439106808E+00
          0                 2           2            55    5     1       0.4402731062E-01      55    5    1         0.1086402443E-01      0.2346574420E-01
          0                 3           2            55    5     1      -0.3913611158E-02      55    5    1        -0.9795249859E-03      0.2140125182E-02
          0                 4           2            55    5     1       0.3102940405E-03      55    5    1         0.7844617854E-04      0.1720384633E-03
          0                 5           1            55    5     1      -0.2161233568E-04      55    5    1        -0.5514776716E-05      0.1210194277E-04
          0                 6           1            55    5     1       0.1297744055E-05      55    5    1         0.3341732588E-06      0.7333578125E-06
          0                 7           1            55    5     1      -0.6557310878E-07      55    5    1        -0.1703952535E-07      0.3739363568E-07

    ------------------------------------------------
       NWT REQUIRED            7 OUTER ITERATIONS 
       AND A TOTAL OF         11 INNER ITERATIONS.
    ------------------------------------------------

 NO OUTPUT CONTROL FOR STRESS PERIOD    7   TIME STEP    4
 
 SOLVING FOR HEAD 
                                                   Max.-Head-Change                         Max.-Flux-Residual
  Residual-Control   Outer-Iter.   Inner-Iter.     Column Row Layer    Maximum-Head-Change  Column Row Layer    Maximum-Flux-Residual          L2-NORM 
          0                 1           2            55    5     1      -0.4391203729E+00      55    5    1        -0.8141019932E-01      0.2169844595E+00
          0                 2           2            55    5     1       0.3497061746E-01      55    5    1         0.7988252980E-02      0.2140518748E-01
          0                 3           2            55    6     1      -0.3020983391E-02      55    5    1        -0.7196937380E-03      0.2012537478E-02
          0                 4           2            55    6     1       0.2386282690E-03      55    5    1         0.5764562886E-04      0.1631513268E-03
          0                 5           1            55    6     1      -0.1661101475E-04      55    5    1        -0.4052436108E-05      0.1149064893E-04
          0                 6           1            55    6     1       0.9973880979E-06      55    5    1         0.2455616013E-06      0.6963667064E-06

    ------------------------------------------------
       NWT REQUIRED            6 OUTER ITERATIONS 
       AND A TOTAL OF         10 INNER ITERATIONS.
    ------------------------------------------------

 NO OUTPUT CONTROL FOR STRESS PERIOD    7   TIME STEP    5
 
 SOLVING FOR HEAD 
                                                   Max.-Head-Change                         Max.-Flux-Residual
  Residual-Control   Outer-Iter.   Inner-Iter.     Column Row Layer    Maximum-Head-Change  Column Row Layer    Maximum-Flux-Residual          L2-NORM 
          0                 1           2            55    5     1      -0.3926461488E+00      55    5    1        -0.6348475391E-01      0.2010134427E+00
          0                 2           2            55    6     1       0.3311005352E-01      55    5    1         0.6240390525E-02      0.2001997512E-01
          0                 3           2            55    6     1      -0.2888110155E-02      55    5    1        -0.5621152567E-03      0.1889961663E-02
          0                 4           2            55    6     1       0.2278565085E-03      55    5    1         0.4502505261E-04      0.1536703341E-03
          0                 5           1            55    6     1      -0.1585576254E-04      55    5    1        -0.3165213160E-05      0.1083280697E-04
          0                 6           1            55    6     1       0.9519919458E-06      55    5    1         0.1917994332E-06      0.6565799130E-06

    ------------------------------------------------
       NWT REQUIRED            6 OUTER ITERATIONS 
       AND A TOTAL OF         10 INNER ITERATIONS.
    ------------------------------------------------

 NO OUTPUT CONTROL FOR STRESS PERIOD    7   TIME STEP    6
 
 SOLVING FOR HEAD 
                                                   Max.-Head-Change                         Max.-Flux-Residual
  Residual-Control   Outer-Iter.   Inner-Iter.     Column Row Layer    Maximum-Head-Change  Column Row Layer    Maximum-Flux-Residual          L2-NORM 
          0                 1           2            55    5     1      -0.3674878674E+00      55    5    1        -0.5164721107E-01      0.1908782101E+00
          0                 2           2            55    6     1       0.3198216849E-01      55    5    1         0.5081969654E-02      0.1905236432E-01
          0                 3           2            55    7     1      -0.2791791557E-02      55    5    1        -0.4577277591E-03      0.1807368208E-02
          0                 4           2            55    7     1       0.2209007280E-03      55    5    1         0.3666429519E-04      0.1475188036E-03
          0                 5           1            55    7     1      -0.1537857201E-04      55    5    1        -0.2577455662E-05      0.1041370858E-04
          0                 6           1            55    7     1       0.9233690930E-06      55    5    1         0.1561836740E-06      0.6313225130E-06

    ------------------------------------------------
       NWT REQUIRED            6 OUTER ITERATIONS 
       AND A TOTAL OF         10 INNER ITERATIONS.
    ------------------------------------------------

 NO OUTPUT CONTROL FOR STRESS PERIOD    7   TIME STEP    7
 
 SOLVING FOR HEAD 
                                                   Max.-Head-Change                         Max.-Flux-Residual
  Residual-Control   Outer-Iter.   Inner-Iter.     Column Row Layer    Maximum-Head-Change  Column Row Layer    Maximum-Flux-Residual          L2-NORM 
          0                 1           2            55    5     1      -0.3553729615E+00      55    5    1        -0.4399183590E-01      0.1839507027E+00
          0                 2           2            55    7     1       0.3175327339E-01      55    5    1         0.4328925968E-02      0.1840385676E-01
          0                 3           2            55    7     1      -0.2796856959E-02      55    5    1        -0.3898966291E-03      0.1754854994E-02
          0                 4           2            55    7     1       0.2210755572E-03      55    5    1         0.3123128770E-04      0.1438585046E-03
          0                 5           1            55    7     1      -0.1538555339E-04      55    5    1        -0.2195518545E-05      0.1017402241E-04
          0                 6           1            55    7     1       0.9237227126E-06      55    5    1         0.1330398103E-06      0.6170423033E-06

    ------------------------------------------------
       NWT REQUIRED            6 OUTER ITERATIONS 
       AND A TOTAL OF         10 INNER ITERATIONS.
    ------------------------------------------------

 NO OUTPUT CONTROL FOR STRESS PERIOD    7   TIME STEP    8
 
 SOLVING FOR HEAD 
                                                   Max.-Head-Change                         Max.-Flux-Residual
  Residual-Control   Outer-Iter.   Inner-Iter.     Column Row Layer    Maximum-Head-Change  Column Row Layer    Maximum-Flux-Residual          L2-NORM 
          0                 1           2            55    5     1      -0.3519438587E+00      55    5    1        -0.3865275784E-01      0.1788827589E+00
          0                 2           2            55    7     1       0.3185527541E-01      55    5    1         0.3801091501E-02      0.1792870388E-01
          0                 3           2            55    7     1      -0.2798368431E-02      55    5    1        -0.3423715527E-03      0.1718888091E-02
          0                 4           2            55    7     1       0.2208997457E-03      55    5    1         0.2742460124E-04      0.1416031679E-03
          0                 5           1            55    7     1      -0.1536581126E-04      55    4    1         0.1957483105E-05      0.1003789770E-04
          0                 6           1            55    7     1       0.9224244620E-06      55    4    1        -0.1193610082E-06      0.6091799081E-06

    ------------------------------------------------
       NWT REQUIRED            6 OUTER ITERATIONS 
       AND A TOTAL OF         10 INNER ITERATIONS.
    ------------------------------------------------

 NO OUTPUT CONTROL FOR STRESS PERIOD    7   TIME STEP    9
 
 SOLVING FOR HEAD 
                                                   Max.-Head-Change                         Max.-Flux-Residual
  Residual-Control   Outer-Iter.   Inner-Iter.     Column Row Layer    Maximum-Head-Change  Column Row Layer    Maximum-Flux-Residual          L2-NORM 
          0                 1           2            55    5     1      -0.3554409857E+00      55    5    1        -0.3485453416E-01      0.1750625483E+00
          0                 2           2            55    7     1       0.3208825183E-01      55    5    1         0.3423058475E-02      0.1756849791E-01
          0                 3           2            55    7     1      -0.2809736634E-02      55    5    1        -0.3083535268E-03      0.1693900880E-02
          0                 4           2            55    7     1       0.2214197258E-03      55    4    1        -0.2626263202E-04      0.1403003669E-03
          0                 5           1            55    7     1      -0.1539143648E-04      55    4    1         0.1929932417E-05      0.9973878816E-05
          0                 6           1            55    7     1       0.9237778095E-06      55    4    1        -0.1179486731E-06      0.6058608531E-06

    ------------------------------------------------
       NWT REQUIRED            6 OUTER ITERATIONS 
       AND A TOTAL OF         10 INNER ITERATIONS.
    ------------------------------------------------

 NO OUTPUT CONTROL FOR STRESS PERIOD    7   TIME STEP   10
 
 SOLVING FOR HEAD 
                                                   Max.-Head-Change                         Max.-Flux-Residual
  Residual-Control   Outer-Iter.   Inner-Iter.     Column Row Layer    Maximum-Head-Change  Column Row Layer    Maximum-Flux-Residual          L2-NORM 
          0                 1           2            55    5     1      -0.3643542010E+00      55    5    1        -0.3202181566E-01      0.1720853279E+00
          0                 2           2            55    7     1       0.3254297832E-01      55    5    1         0.3138835593E-02      0.1728557635E-01
          0                 3           2            55    7     1      -0.2838817344E-02      55    5    1        -0.2827937462E-03      0.1676202734E-02
          0                 4           2            55    7     1       0.2232400333E-03      55    4    1        -0.2595744365E-04      0.1396430540E-03
          0                 5           1            55    7     1      -0.1550359342E-04      55    4    1         0.1922015326E-05      0.9960459094E-05
          0                 6           1            55    7     1       0.9302209180E-06      55    4    1        -0.1177956426E-06      0.6058103181E-06

    ------------------------------------------------
       NWT REQUIRED            6 OUTER ITERATIONS 
       AND A TOTAL OF         10 INNER ITERATIONS.
    ------------------------------------------------

 NO OUTPUT CONTROL FOR STRESS PERIOD    7   TIME STEP   11
 
 SOLVING FOR HEAD 
                                                   Max.-Head-Change                         Max.-Flux-Residual
  Residual-Control   Outer-Iter.   Inner-Iter.     Column Row Layer    Maximum-Head-Change  Column Row Layer    Maximum-Flux-Residual          L2-NORM 
          0                 1           2            55    5     1      -0.3778796579E+00      55    5    1        -0.2983408731E-01      0.1696611134E+00
          0                 2           2            55    7     1       0.3327123732E-01      55    5    1         0.2917032986E-02      0.1705950706E-01
          0                 3           2            55    7     1      -0.2889962919E-02      55    4    1         0.2667747664E-03      0.1663717358E-02
          0                 4           2            55    7     1       0.2266853086E-03      55    4    1        -0.2583180017E-04      0.1394431470E-03
          0                 5           1            55    7     1      -0.1572378310E-04      55    4    1         0.1928216420E-05      0.9983783902E-05
          0                 6           1            55    7     1       0.9430015037E-06      55    4    1        -0.1185722001E-06      0.6081955674E-06

    ------------------------------------------------
       NWT REQUIRED            6 OUTER ITERATIONS 
       AND A TOTAL OF         10 INNER ITERATIONS.
    ------------------------------------------------

 NO OUTPUT CONTROL FOR STRESS PERIOD    7   TIME STEP   12
 
 SOLVING FOR HEAD 
                                                   Max.-Head-Change                         Max.-Flux-Residual
  Residual-Control   Outer-Iter.   Inner-Iter.     Column Row Layer    Maximum-Head-Change  Column Row Layer    Maximum-Flux-Residual          L2-NORM 
          0                 1           2            55    5     1      -0.3957139249E+00      55    5    1        -0.2811871637E-01      0.1676188699E+00
          0                 2           2            55    7     1       0.3430363829E-01      55    5    1         0.2740506676E-02      0.1686068826E-01
          0                 3           2            55    7     1      -0.2965598803E-02      55    4    1         0.2632814913E-03      0.1653516074E-02
          0                 4           2            55    7     1       0.2319247872E-03      55    4    1        -0.2583855179E-04      0.1394663309E-03
          0                 5           1            55    7     1      -0.1606249220E-04      55    4    1         0.1945082251E-05      0.1002794254E-04
          0                 6           1            55    7     1       0.9626945898E-06      55    4    1        -0.1200712765E-06      0.6121000836E-06

    ------------------------------------------------
       NWT REQUIRED            6 OUTER ITERATIONS 
       AND A TOTAL OF         10 INNER ITERATIONS.
    ------------------------------------------------

 NO OUTPUT CONTROL FOR STRESS PERIOD    7   TIME STEP   13
 
 SOLVING FOR HEAD 
                                                   Max.-Head-Change                         Max.-Flux-Residual
  Residual-Control   Outer-Iter.   Inner-Iter.     Column Row Layer    Maximum-Head-Change  Column Row Layer    Maximum-Flux-Residual          L2-NORM 
          0                 1           2            55    5     1      -0.4180368331E+00      55    5    1        -0.2681291990E-01      0.1658945215E+00
          0                 2           2            55    7     1       0.3566371419E-01      55    5    1         0.2602561740E-02      0.1669004873E-01
          0                 3           2            55    7     1      -0.3067463014E-02      55    4    1         0.2610101037E-03      0.1645693577E-02
          0                 4           2            55    7     1       0.2390697026E-03      55    4    1        -0.2595568181E-04      0.1397085681E-03
          0                 5           1            55    7     1      -0.1652593837E-04      55    4    1         0.1971002751E-05      0.1009214322E-04
          0                 6           1            55    7     1       0.9896054497E-06      55    4    1        -0.1221972008E-06      0.6174795867E-06

    ------------------------------------------------
       NWT REQUIRED            6 OUTER ITERATIONS 
       AND A TOTAL OF         10 INNER ITERATIONS.
    ------------------------------------------------

 NO OUTPUT CONTROL FOR STRESS PERIOD    7   TIME STEP   14
 
 SOLVING FOR HEAD 
                                                   Max.-Head-Change                         Max.-Flux-Residual
  Residual-Control   Outer-Iter.   Inner-Iter.     Column Row Layer    Maximum-Head-Change  Column Row Layer    Maximum-Flux-Residual          L2-NORM 
          0                 1           2            55    5     1      -0.4444260819E+00      55    5    1        -0.2574056947E-01      0.1643883461E+00
          0                 2           2            55    7     1       0.3736040241E-01      55    5    1         0.2485887360E-02      0.1653812607E-01
          0                 3           2            55    7     1      -0.3196023130E-02      55    4    1         0.2594585668E-03      0.1639244879E-02
          0                 4           2            55    7     1       0.2481304176E-03      55    4    1        -0.2613578512E-04      0.1400750552E-03
          0                 5           1            55    7     1      -0.1711319776E-04      55    4    1         0.2002361944E-05      0.1016913476E-04
          0                 6           1            55    7     1       0.1023599492E-05      55    4    1        -0.1247241004E-06      0.6238941414E-06
          0                 7           1            55    7     1      -0.5165816987E-07      55    4    1         0.6395717733E-08      0.3191695736E-07

    ------------------------------------------------
       NWT REQUIRED            7 OUTER ITERATIONS 
       AND A TOTAL OF         11 INNER ITERATIONS.
    ------------------------------------------------

 NO OUTPUT CONTROL FOR STRESS PERIOD    7   TIME STEP   15
 
 SOLVING FOR HEAD 
                                                   Max.-Head-Change                         Max.-Flux-Residual
  Residual-Control   Outer-Iter.   Inner-Iter.     Column Row Layer    Maximum-Head-Change  Column Row Layer    Maximum-Flux-Residual          L2-NORM 
          0                 1           2            55    5     1      -0.4751255124E+00      55    5    1        -0.2488018103E-01      0.1629557528E+00
          0                 2           2            55    7     1       0.3940019511E-01      55    5    1         0.2387738780E-02      0.1639964014E-01
          0                 3           2            55    7     1      -0.3351476483E-02      55    4    1         0.2584861693E-03      0.1633841355E-02
          0                 4           2            55    7     1       0.2590927341E-03      55    4    1        -0.2636448748E-04      0.1405270407E-03
          0                 5           1            55    7     1      -0.1782142182E-04      55    4    1         0.2037984131E-05      0.1025518552E-04
          0                 6           1            55    7     1       0.1064413107E-05      55    4    1        -0.1275750741E-06      0.6310869869E-06
          0                 7           1            55    7     1      -0.5368457842E-07      55    4    1         0.6555226584E-08      0.3232723242E-07

    ------------------------------------------------
       NWT REQUIRED            7 OUTER ITERATIONS 
       AND A TOTAL OF         11 INNER ITERATIONS.
    ------------------------------------------------

 NO OUTPUT CONTROL FOR STRESS PERIOD    7   TIME STEP   16
 
 SOLVING FOR HEAD 
                                                   Max.-Head-Change                         Max.-Flux-Residual
  Residual-Control   Outer-Iter.   Inner-Iter.     Column Row Layer    Maximum-Head-Change  Column Row Layer    Maximum-Flux-Residual          L2-NORM 
          0                 1           2            55    5     1      -0.5102089695E+00      55    5    1        -0.2417488409E-01      0.1615862977E+00
          0                 2           2            55    7     1       0.4178591159E-01      55    5    1         0.2302019019E-02      0.1626316178E-01
          0                 3           2            55    7     1      -0.3533695687E-02      55    4    1         0.2578728611E-03      0.1628143047E-02
          0                 4           2            55    7     1       0.2719158397E-03      55    4    1        -0.2662003876E-04      0.1409446017E-03
          0                 5           1            55    7     1      -0.1864578155E-04      55    4    1         0.2076108379E-05      0.1034125855E-04
          0                 6           1            55    7     1       0.1111652132E-05      55    4    1        -0.1306335831E-06      0.6384947462E-06
          0                 7           1            55    7     1      -0.5602029893E-07      55    4    1         0.6728168245E-08      0.3275792186E-07

    ------------------------------------------------
       NWT REQUIRED            7 OUTER ITERATIONS 
       AND A TOTAL OF         11 INNER ITERATIONS.
    ------------------------------------------------

 NO OUTPUT CONTROL FOR STRESS PERIOD    7   TIME STEP   17
 
 SOLVING FOR HEAD 
                                                   Max.-Head-Change                         Max.-Flux-Residual
  Residual-Control   Outer-Iter.   Inner-Iter.     Column Row Layer    Maximum-Head-Change  Column Row Layer    Maximum-Flux-Residual          L2-NORM 
          0                 1           2            55    5     1      -0.5498809061E+00      55    5    1        -0.2359732570E-01      0.1602389053E+00
          0                 2           2            54    7     1       0.4479965767E-01      55    5    1         0.2225305777E-02      0.1612805263E-01
          0                 3           2            54    7     1      -0.3766350300E-02      55    4    1         0.2574703675E-03      0.1622163088E-02
          0                 4           2            54    7     1       0.2884898599E-03      55    4    1        -0.2688711448E-04      0.1413220149E-03
          0                 5           1            54    7     1      -0.1972089113E-04      55    4    1         0.2115432005E-05      0.1042624500E-04
          0                 6           1            54    7     1       0.1173563842E-05      55    4    1        -0.1338075482E-06      0.6460177021E-06
          0                 7           1            54    7     1      -0.5908850228E-07      55    4    1         0.6909760764E-08      0.3320377189E-07

    ------------------------------------------------
       NWT REQUIRED            7 OUTER ITERATIONS 
       AND A TOTAL OF         11 INNER ITERATIONS.
    ------------------------------------------------

 NO OUTPUT CONTROL FOR STRESS PERIOD    7   TIME STEP   18
 
 SOLVING FOR HEAD 
                                                   Max.-Head-Change                         Max.-Flux-Residual
  Residual-Control   Outer-Iter.   Inner-Iter.     Column Row Layer    Maximum-Head-Change  Column Row Layer    Maximum-Flux-Residual          L2-NORM 
          0                 1           2            55    5     1      -0.5944302200E+00      55    5    1        -0.2313618273E-01      0.1588818220E+00
          0                 2           2            54    7     1       0.4821801475E-01      55    5    1         0.2155512251E-02      0.1599397310E-01
          0                 3           2            54    7     1      -0.4030493757E-02      55    4    1         0.2571504532E-03      0.1616142225E-02
          0                 4           2            54    7     1       0.3071557211E-03      55    4    1        -0.2715238748E-04      0.1416729581E-03
          0                 5           1            54    7     1      -0.2091797105E-04      55    4    1         0.2154831676E-05      0.1050966547E-04
          0                 6           1            54    7     1       0.1241760127E-05      55    4    1        -0.1370179223E-06      0.6535325325E-06
          0                 7           1            54    7     1      -0.6244284768E-07      55    4    1         0.7095925625E-08      0.3365574018E-07

    ------------------------------------------------
       NWT REQUIRED            7 OUTER ITERATIONS 
       AND A TOTAL OF         11 INNER ITERATIONS.
    ------------------------------------------------

 NO OUTPUT CONTROL FOR STRESS PERIOD    7   TIME STEP   19
 
 SOLVING FOR HEAD 
                                                   Max.-Head-Change                         Max.-Flux-Residual
  Residual-Control   Outer-Iter.   Inner-Iter.     Column Row Layer    Maximum-Head-Change  Column Row Layer    Maximum-Flux-Residual          L2-NORM 
          0                 1           3            55    5     1      -0.6437232382E+00      55    5    1        -0.2272911785E-01      0.1574880140E+00
          0                 2           2            54    7     1       0.5191194247E-01      55    5    1         0.2085886558E-02      0.1585652649E-01
          0                 3           2            54    7     1      -0.4314243993E-02      55    4    1         0.2566276835E-03      0.1609623332E-02
          0                 4           2            54    7     1       0.3270340213E-03      55    4    1        -0.2738552815E-04      0.1419558147E-03
          0                 5           1            54    7     1      -0.2218025809E-04      55    4    1         0.2191790162E-05      0.1058810057E-04
          0                 6           1            54    7     1       0.1313012927E-05      55    4    1        -0.1400953282E-06      0.6607955264E-06
          0                 7           1            54    7     1      -0.6592508269E-07      55    4    1         0.7278149639E-08      0.3410066880E-07

    ------------------------------------------------
       NWT REQUIRED            7 OUTER ITERATIONS 
       AND A TOTAL OF         12 INNER ITERATIONS.
    ------------------------------------------------

 NO OUTPUT CONTROL FOR STRESS PERIOD    7   TIME STEP   20
 
 SOLVING FOR HEAD 
                                                   Max.-Head-Change                         Max.-Flux-Residual
  Residual-Control   Outer-Iter.   Inner-Iter.     Column Row Layer    Maximum-Head-Change  Column Row Layer    Maximum-Flux-Residual          L2-NORM 
          0                 1           3            55    5     1      -0.6977020893E+00      55    5    1        -0.2237488064E-01      0.1560557702E+00
          0                 2           2            54    7     1       0.5584165580E-01      55    6    1         0.2050789035E-02      0.1572155211E-01
          0                 3           2            54    7     1      -0.4613693545E-02      53    4    1         0.2595363882E-03      0.1603523036E-02
          0                 4           2            54    7     1       0.3478571065E-03      53    4    1        -0.2780678508E-04      0.1422291478E-03
          0                 5           1            54    7     1      -0.2349348407E-04      53    4    1         0.2238443196E-05      0.1066344464E-04
          0                 6           1            54    7     1       0.1386706085E-05      53    4    1        -0.1435931782E-06      0.6677856358E-06
          0                 7           1            54    7     1      -0.6951110496E-07      52    4    1         0.7508107025E-08      0.3453358473E-07

    ------------------------------------------------
       NWT REQUIRED            7 OUTER ITERATIONS 
       AND A TOTAL OF         12 INNER ITERATIONS.
    ------------------------------------------------

 NO OUTPUT CONTROL FOR STRESS PERIOD    7   TIME STEP   21
 
 SOLVING FOR HEAD 
                                                   Max.-Head-Change                         Max.-Flux-Residual
  Residual-Control   Outer-Iter.   Inner-Iter.     Column Row Layer    Maximum-Head-Change  Column Row Layer    Maximum-Flux-Residual          L2-NORM 
          0                 1           3            55    5     1      -0.7552694615E+00      55    5    1        -0.2205149117E-01      0.1544497806E+00
          0                 2           2            54    7     1       0.5990879417E-01      55    6    1         0.2020543058E-02      0.1560814555E-01
          0                 3           2            54    7     1      -0.4919637889E-02      55    4    1         0.2609673635E-03      0.1601195914E-02
          0                 4           2            54    7     1       0.3689514961E-03      55    4    1        -0.2813691969E-04      0.1427670490E-03
          0                 5           1            54    7     1      -0.2481790073E-04      55    4    1         0.2274297803E-05      0.1074999123E-04
          0                 6           1            54    7     1       0.1460999118E-05      52    4    1        -0.1470223951E-06      0.6749784163E-06
          0                 7           1            54    7     1      -0.7313295142E-07      52    4    1         0.7731872032E-08      0.3496008495E-07

    ------------------------------------------------
       NWT REQUIRED            7 OUTER ITERATIONS 
       AND A TOTAL OF         12 INNER ITERATIONS.
    ------------------------------------------------

 NO OUTPUT CONTROL FOR STRESS PERIOD    7   TIME STEP   22
 
 SOLVING FOR HEAD 
                                                   Max.-Head-Change                         Max.-Flux-Residual
  Residual-Control   Outer-Iter.   Inner-Iter.     Column Row Layer    Maximum-Head-Change  Column Row Layer    Maximum-Flux-Residual          L2-NORM 
          0                 1           3            55    5     1      -0.8198127647E+00      55    5    1        -0.2170686832E-01      0.1528063450E+00
          0                 2           2            54    7     1       0.6435912307E-01      55    6    1         0.1992188795E-02      0.1541711616E-01
          0                 3           2            54    7     1      -0.5252730509E-02      55    4    1         0.2600688862E-03      0.1587842988E-02
          0                 4           2            54    7     1       0.3915087839E-03      55    4    1        -0.2826766862E-04      0.1423983188E-03
          0                 5           1            54    7     1      -0.2619797072E-04      55    4    1         0.2300639687E-05      0.1078179181E-04
          0                 6           1            54    7     1       0.1536421482E-05      52    4    1        -0.1492877892E-06      0.6794799687E-06
          0                 7           1            54    7     1      -0.7673938334E-07      52    4    1         0.7889639164E-08      0.3527903513E-07

    ------------------------------------------------
       NWT REQUIRED            7 OUTER ITERATIONS 
       AND A TOTAL OF         12 INNER ITERATIONS.
    ------------------------------------------------

 NO OUTPUT CONTROL FOR STRESS PERIOD    7   TIME STEP   23
 
 SOLVING FOR HEAD 
                                                   Max.-Head-Change                         Max.-Flux-Residual
  Residual-Control   Outer-Iter.   Inner-Iter.     Column Row Layer    Maximum-Head-Change  Column Row Layer    Maximum-Flux-Residual          L2-NORM 
          0                 1           3            55    5     1      -0.8929220721E+00      55    5    1        -0.2141086456E-01      0.1513320185E+00
          0                 2           2            54    7     1       0.6920518029E-01      55    6    1         0.1969588620E-02      0.1524675955E-01
          0                 3           2            54    7     1      -0.5614590788E-02      55    4    1         0.2571150479E-03      0.1576210960E-02
          0                 4           2            54    7     1       0.4158832738E-03      55    4    1        -0.2825994022E-04      0.1421344850E-03
          0                 5           1            54    7     1      -0.2767737940E-04      55    4    1         0.2318951464E-05      0.1081975281E-04
          0                 6           1            54    7     1       0.1616682803E-05      52    4    1        -0.1515998962E-06      0.6842818751E-06
          0                 7           1            54    7     1      -0.8055535085E-07      52    4    1         0.8049341638E-08      0.3561557397E-07

    ------------------------------------------------
       NWT REQUIRED            7 OUTER ITERATIONS 
       AND A TOTAL OF         12 INNER ITERATIONS.
    ------------------------------------------------

 NO OUTPUT CONTROL FOR STRESS PERIOD    7   TIME STEP   24
 
 SOLVING FOR HEAD 
                                                   Max.-Head-Change                         Max.-Flux-Residual
  Residual-Control   Outer-Iter.   Inner-Iter.     Column Row Layer    Maximum-Head-Change  Column Row Layer    Maximum-Flux-Residual          L2-NORM 
          0                 1           3            55    5     1      -0.9730477470E+00      55    5    1        -0.2121558398E-01      0.1499207565E+00
          0                 2           2            54    7     1       0.7444784807E-01      55    6    1         0.1953439926E-02      0.1509303689E-01
          0                 3           2            54    7     1      -0.6005283559E-02      55    4    1         0.2551408974E-03      0.1565949435E-02
          0                 4           2            54    7     1       0.4420697505E-03      55    4    1        -0.2828878730E-04      0.1419297864E-03
          0                 5           1            54    7     1      -0.2925477818E-04      55    4    1         0.2337654746E-05      0.1085913782E-04
          0                 6           1            54    7     1       0.1701725310E-05      52    4    1        -0.1535110181E-06      0.6890122433E-06
          0                 7           1            54    7     1      -0.8457867090E-07      52    4    1         0.8189529055E-08      0.3594802493E-07

    ------------------------------------------------
       NWT REQUIRED            7 OUTER ITERATIONS 
       AND A TOTAL OF         12 INNER ITERATIONS.
    ------------------------------------------------

 NO OUTPUT CONTROL FOR STRESS PERIOD    7   TIME STEP   25
 
 SOLVING FOR HEAD 
                                                   Max.-Head-Change                         Max.-Flux-Residual
  Residual-Control   Outer-Iter.   Inner-Iter.     Column Row Layer    Maximum-Head-Change  Column Row Layer    Maximum-Flux-Residual          L2-NORM 
          0                 1           3            55    5     1      -0.1060897377E+01      55    5    1        -0.2101287066E-01      0.1486372198E+00
          0                 2           2            54    7     1       0.8009477173E-01      55    6    1         0.1941790560E-02      0.1494159667E-01
          0                 3           2            54    7     1      -0.6424764694E-02      55    4    1         0.2526832527E-03      0.1555351796E-02
          0                 4           2            54    7     1       0.4700187976E-03      55    4    1        -0.2825088002E-04      0.1416533136E-03
          0                 5           1            54    7     1      -0.3092429710E-04      55    4    1         0.2350092962E-05      0.1089100779E-04
          0                 6           1            54    7     1       0.1791184467E-05      52    4    1        -0.1550057611E-06      0.6931134400E-06
          0                 7           1            54    7     1      -0.8878943704E-07      52    4    1         0.8308723487E-08      0.3624693141E-07

    ------------------------------------------------
       NWT REQUIRED            7 OUTER ITERATIONS 
       AND A TOTAL OF         12 INNER ITERATIONS.
    ------------------------------------------------

 NO OUTPUT CONTROL FOR STRESS PERIOD    7   TIME STEP   26
 
 SOLVING FOR HEAD 
                                                   Max.-Head-Change                         Max.-Flux-Residual
  Residual-Control   Outer-Iter.   Inner-Iter.     Column Row Layer    Maximum-Head-Change  Column Row Layer    Maximum-Flux-Residual          L2-NORM 
          0                 1           3            55    5     1      -0.1157867578E+01      55    5    1        -0.2084641359E-01      0.1472899088E+00
          0                 2           3            54    7     1       0.8617997947E-01      55    6    1         0.1935073289E-02      0.1479675401E-01
          0                 3           2            54    7     1      -0.6875660481E-02      54    4    1         0.2504992717E-03      0.1545690138E-02
          0                 4           2            54    7     1       0.4999014134E-03      55    4    1        -0.2814309770E-04      0.1414181483E-03
          0                 5           1            54    7     1      -0.3269659491E-04      55    4    1         0.2356122834E-05      0.1092273936E-04
          0                 6           1            54    7     1       0.1886425099E-05      54    4    1        -0.1562625327E-06      0.6970262575E-06
          0                 7           1            54    7     1      -0.9327431259E-07      52    4    1         0.8411421781E-08      0.3654243968E-07

    ------------------------------------------------
       NWT REQUIRED            7 OUTER ITERATIONS 
       AND A TOTAL OF         13 INNER ITERATIONS.
    ------------------------------------------------

 NO OUTPUT CONTROL FOR STRESS PERIOD    7   TIME STEP   27
 
 SOLVING FOR HEAD 
                                                   Max.-Head-Change                         Max.-Flux-Residual
  Residual-Control   Outer-Iter.   Inner-Iter.     Column Row Layer    Maximum-Head-Change  Column Row Layer    Maximum-Flux-Residual          L2-NORM 
          0                 1           3            55    5     1      -0.1264883386E+01      55    5    1        -0.2067999591E-01      0.1458178709E+00
          0                 2           3            54    7     1       0.9274371633E-01      55    6    1         0.1934682896E-02      0.1465618536E-01
          0                 3           2            54    7     1      -0.7360841515E-02      54    4    1         0.2480970672E-03      0.1536033425E-02
          0                 4           2            54    7     1       0.5319105657E-03      54    4    1        -0.2796365811E-04      0.1411115973E-03
          0                 5           1            54    7     1      -0.3458287316E-04      55    4    1         0.2354323175E-05      0.1094505338E-04
          0                 6           1            54    7     1       0.1987713549E-05      54    4    1        -0.1572728667E-06      0.6999894512E-06
          0                 7           1            54    7     1      -0.9802227869E-07      52    4    1         0.8495219639E-08      0.3678907543E-07

    ------------------------------------------------
       NWT REQUIRED            7 OUTER ITERATIONS 
       AND A TOTAL OF         13 INNER ITERATIONS.
    ------------------------------------------------

 NO OUTPUT CONTROL FOR STRESS PERIOD    7   TIME STEP   28
 
 SOLVING FOR HEAD 
                                                   Max.-Head-Change                         Max.-Flux-Residual
  Residual-Control   Outer-Iter.   Inner-Iter.     Column Row Layer    Maximum-Head-Change  Column Row Layer    Maximum-Flux-Residual          L2-NORM 
          0                 1           3            55    5     1      -0.1383713037E+01      55    5    1        -0.2054643619E-01      0.1443479901E+00
          0                 2           3            54    7     1       0.9983815503E-01      55    6    1         0.1942562245E-02      0.1450682968E-01
          0                 3           2            54    7     1      -0.7884483227E-02      54    4    1         0.2454938290E-03      0.1524724712E-02
          0                 4           2            54    7     1       0.5663362239E-03      54    4    1        -0.2782241608E-04      0.1405979287E-03
          0                 5           1            54    7     1      -0.3660172277E-04      54    4    1         0.2352335513E-05      0.1094799714E-04
          0                 6           1            54    7     1       0.2096578105E-05      54    4    1        -0.1579601134E-06      0.7015274859E-06
          0                 7           1            54    7     1      -0.1031049689E-06      54    4    1         0.8566884979E-08      0.3696919999E-07

    ------------------------------------------------
       NWT REQUIRED            7 OUTER ITERATIONS 
       AND A TOTAL OF         13 INNER ITERATIONS.
    ------------------------------------------------

 NO OUTPUT CONTROL FOR STRESS PERIOD    7   TIME STEP   29
 
 SOLVING FOR HEAD 
                                                   Max.-Head-Change                         Max.-Flux-Residual
  Residual-Control   Outer-Iter.   Inner-Iter.     Column Row Layer    Maximum-Head-Change  Column Row Layer    Maximum-Flux-Residual          L2-NORM 
          0                 1           3            55    5     1      -0.1516264608E+01      55    5    1        -0.2044550116E-01      0.1428519376E+00
          0                 2           3            55    5     1       0.1081111063E+00      55    6    1         0.1961820322E-02      0.1436387621E-01
          0                 3           2            54    7     1      -0.8451328536E-02      54    4    1         0.2427148801E-03      0.1514453786E-02
          0                 4           2            54    7     1       0.6035184399E-03      54    4    1        -0.2764652595E-04      0.1401468406E-03
          0                 5           1            54    7     1      -0.3877564402E-04      54    4    1         0.2348366885E-05      0.1095064767E-04
          0                 6           1            54    7     1       0.2214764865E-05      54    4    1        -0.1583442968E-06      0.7026017270E-06
          0                 7           1            54    7     1      -0.1085793201E-06      54    4    1         0.8630053117E-08      0.3712634549E-07

    ------------------------------------------------
       NWT REQUIRED            7 OUTER ITERATIONS 
       AND A TOTAL OF         13 INNER ITERATIONS.
    ------------------------------------------------

 NO OUTPUT CONTROL FOR STRESS PERIOD    7   TIME STEP   30



 STREAM LISTING     PERIOD      7   STEP       30

 LAYER ROW COL. STREAM  RCH.   FLOW INTO    STREAM     FLOW OUT OF   OVRLND.    DIRECT     STREAM      STREAM      STREAM     STREAM  STREAMBED   FLOW TO   CHNG. UNSAT. 
                SEG.NO.  NO.   STRM. RCH.    LOSS       STRM. RCH.   RUNOFF     PRECIP       ET         HEAD        DEPTH      WIDTH  CONDCTNC.   WAT. TAB.

   1    4    1     1     1    4.4070E+01  1.0651E-02   4.4059E+01  0.000E+00  0.000E+00  0.000E+00  1.44496E+02  4.646E+00  1.039E+01  2.070E-03  1.084E-02 -1.903E-04
   1    4    2     1     2    4.4059E+01  1.0649E-02   4.4049E+01  0.000E+00  0.000E+00  0.000E+00  1.44195E+02  4.645E+00  1.039E+01  2.070E-03  1.084E-02 -1.893E-04
   1    4    3     1     3    4.4049E+01  1.0647E-02   4.4038E+01  0.000E+00  0.000E+00  0.000E+00  1.43895E+02  4.645E+00  1.039E+01  2.069E-03  1.083E-02 -1.874E-04
   1    4    4     1     4    4.4038E+01  1.0645E-02   4.4027E+01  0.000E+00  0.000E+00  0.000E+00  1.43594E+02  4.644E+00  1.038E+01  2.069E-03  1.083E-02 -1.846E-04
   1    4    5     1     5    4.4027E+01  1.0643E-02   4.4017E+01  0.000E+00  0.000E+00  0.000E+00  1.43294E+02  4.644E+00  1.038E+01  2.069E-03  1.082E-02 -1.811E-04
   1    4    6     1     6    4.4017E+01  1.0641E-02   4.4006E+01  0.000E+00  0.000E+00  0.000E+00  1.42993E+02  4.643E+00  1.038E+01  2.069E-03  1.082E-02 -1.768E-04
   1    4    7     1     7    4.4006E+01  1.0639E-02   4.3995E+01  0.000E+00  0.000E+00  0.000E+00  1.42693E+02  4.643E+00  1.038E+01  2.069E-03  1.081E-02 -1.718E-04
   1    4    8     1     8    4.3995E+01  1.0637E-02   4.3985E+01  0.000E+00  0.000E+00  0.000E+00  1.42393E+02  4.643E+00  1.038E+01  2.068E-03  1.080E-02 -1.661E-04
   1    4    9     1     9    4.3985E+01  1.0635E-02   4.3974E+01  0.000E+00  0.000E+00  0.000E+00  1.42092E+02  4.642E+00  1.038E+01  2.068E-03  1.079E-02 -1.596E-04
   1    4   10     1    10    4.3974E+01  1.0633E-02   4.3964E+01  0.000E+00  0.000E+00  0.000E+00  1.41792E+02  4.642E+00  1.038E+01  2.068E-03  1.079E-02 -1.523E-04
   1    4   11     1    11    4.3964E+01  1.0631E-02   4.3953E+01  0.000E+00  0.000E+00  0.000E+00  1.41491E+02  4.641E+00  1.038E+01  2.068E-03  1.078E-02 -1.444E-04
   1    4   12     1    12    4.3953E+01  1.0630E-02   4.3942E+01  0.000E+00  0.000E+00  0.000E+00  1.41191E+02  4.641E+00  1.038E+01  2.068E-03  1.077E-02 -1.357E-04
   1    4   13     1    13    4.3942E+01  1.0628E-02   4.3932E+01  0.000E+00  0.000E+00  0.000E+00  1.40890E+02  4.640E+00  1.037E+01  2.067E-03  1.075E-02 -1.263E-04
   1    4   14     1    14    4.3932E+01  1.0626E-02   4.3921E+01  0.000E+00  0.000E+00  0.000E+00  1.40590E+02  4.640E+00  1.037E+01  2.067E-03  1.074E-02 -1.163E-04
   1    4   15     1    15    4.3921E+01  1.0624E-02   4.3910E+01  0.000E+00  0.000E+00  0.000E+00  1.40290E+02  4.640E+00  1.037E+01  2.067E-03  1.073E-02 -1.057E-04
   1    4   16     1    16    4.3910E+01  1.0622E-02   4.3900E+01  0.000E+00  0.000E+00  0.000E+00  1.39989E+02  4.639E+00  1.037E+01  2.067E-03  1.072E-02 -9.442E-05
   1    4   17     1    17    4.3900E+01  1.0620E-02   4.3889E+01  0.000E+00  0.000E+00  0.000E+00  1.39689E+02  4.639E+00  1.037E+01  2.067E-03  1.070E-02 -8.261E-05
   1    4   18     1    18    4.3889E+01  1.0618E-02   4.3879E+01  0.000E+00  0.000E+00  0.000E+00  1.39388E+02  4.638E+00  1.037E+01  2.066E-03  1.069E-02 -7.027E-05
   1    4   19     1    19    4.3879E+01  1.0616E-02   4.3868E+01  0.000E+00  0.000E+00  0.000E+00  1.39088E+02  4.638E+00  1.037E+01  2.066E-03  1.067E-02 -5.743E-05
   1    4   20     1    20    4.3868E+01  1.0614E-02   4.3857E+01  0.000E+00  0.000E+00  0.000E+00  1.38787E+02  4.637E+00  1.037E+01  2.066E-03  1.066E-02 -4.413E-05
   1    4   21     1    21    4.3857E+01  1.0612E-02   4.3847E+01  0.000E+00  0.000E+00  0.000E+00  1.38487E+02  4.637E+00  1.037E+01  2.066E-03  1.064E-02 -3.040E-05
   1    4   22     1    22    4.3847E+01  1.0610E-02   4.3836E+01  0.000E+00  0.000E+00  0.000E+00  1.38187E+02  4.637E+00  1.036E+01  2.066E-03  1.063E-02 -1.626E-05
   1    4   23     1    23    4.3836E+01  1.0608E-02   4.3826E+01  0.000E+00  0.000E+00  0.000E+00  1.37886E+02  4.636E+00  1.036E+01  2.065E-03  1.061E-02 -1.727E-06
   1    4   24     1    24    4.3826E+01  1.0607E-02   4.3815E+01  0.000E+00  0.000E+00  0.000E+00  1.37586E+02  4.636E+00  1.036E+01  2.065E-03  1.059E-02  1.320E-05
   1    4   25     1    25    4.3815E+01  1.0605E-02   4.3804E+01  0.000E+00  0.000E+00  0.000E+00  1.37285E+02  4.635E+00  1.036E+01  2.065E-03  1.058E-02  2.855E-05
   1    4   26     1    26    4.3804E+01  1.0603E-02   4.3794E+01  0.000E+00  0.000E+00  0.000E+00  1.36985E+02  4.635E+00  1.036E+01  2.065E-03  1.056E-02  4.435E-05
   1    4   27     1    27    4.3794E+01  1.0601E-02   4.3783E+01  0.000E+00  0.000E+00  0.000E+00  1.36684E+02  4.634E+00  1.036E+01  2.065E-03  1.054E-02  6.068E-05
   1    4   28     1    28    4.3783E+01  1.0599E-02   4.3773E+01  0.000E+00  0.000E+00  0.000E+00  1.36384E+02  4.634E+00  1.036E+01  2.064E-03  1.052E-02  7.765E-05
   1    4   29     1    29    4.3773E+01  1.0597E-02   4.3762E+01  0.000E+00  0.000E+00  0.000E+00  1.36084E+02  4.634E+00  1.036E+01  2.064E-03  1.050E-02  9.544E-05
   1    4   30     1    30    4.3762E+01  1.0595E-02   4.3751E+01  0.000E+00  0.000E+00  0.000E+00  1.35783E+02  4.633E+00  1.036E+01  2.064E-03  1.048E-02  1.143E-04
   1    4   31     1    31    4.3751E+01  1.0593E-02   4.3741E+01  0.000E+00  0.000E+00  0.000E+00  1.35483E+02  4.633E+00  1.035E+01  2.064E-03  1.046E-02  1.346E-04
   1    4   32     1    32    4.3741E+01  1.0591E-02   4.3730E+01  0.000E+00  0.000E+00  0.000E+00  1.35182E+02  4.632E+00  1.035E+01  2.064E-03  1.043E-02  1.567E-04
   1    4   33     1    33    4.3730E+01  1.0589E-02   4.3720E+01  0.000E+00  0.000E+00  0.000E+00  1.34882E+02  4.632E+00  1.035E+01  2.063E-03  1.041E-02  1.811E-04
   1    4   34     1    34    4.3720E+01  1.0587E-02   4.3709E+01  0.000E+00  0.000E+00  0.000E+00  1.34581E+02  4.631E+00  1.035E+01  2.063E-03  1.038E-02  2.085E-04
   1    4   35     1    35    4.3709E+01  1.0586E-02   4.3698E+01  0.000E+00  0.000E+00  0.000E+00  1.34281E+02  4.631E+00  1.035E+01  2.063E-03  1.035E-02  2.375E-04
   1    4   36     1    36    4.3698E+01  1.0584E-02   4.3688E+01  0.000E+00  0.000E+00  0.000E+00  1.33981E+02  4.631E+00  1.035E+01  2.063E-03  1.031E-02  2.702E-04
   1    4   37     1    37    4.3688E+01  1.0582E-02   4.3677E+01  0.000E+00  0.000E+00  0.000E+00  1.33680E+02  4.630E+00  1.035E+01  2.063E-03  1.014E-02  4.442E-04
   1    4   38     1    38    4.3677E+01  1.0580E-02   4.3667E+01  0.000E+00  0.000E+00  0.000E+00  1.33380E+02  4.630E+00  1.035E+01  2.062E-03  9.328E-03  1.252E-03
   1    4   39     1    39    4.3667E+01  1.0578E-02   4.3656E+01  0.000E+00  0.000E+00  0.000E+00  1.33079E+02  4.629E+00  1.034E+01  2.062E-03  8.577E-03  2.000E-03
   1    4   40     1    40    4.3656E+01  1.0576E-02   4.3645E+01  0.000E+00  0.000E+00  0.000E+00  1.32779E+02  4.629E+00  1.034E+01  2.062E-03  8.519E-03  2.057E-03
   1    4   41     1    41    4.3645E+01  1.0574E-02   4.3635E+01  0.000E+00  0.000E+00  0.000E+00  1.32478E+02  4.628E+00  1.034E+01  2.062E-03  8.453E-03  2.122E-03
   1    4   42     1    42    4.3635E+01  1.0572E-02   4.3624E+01  0.000E+00  0.000E+00  0.000E+00  1.32178E+02  4.628E+00  1.034E+01  2.062E-03  8.376E-03  2.196E-03
   1    4   43     1    43    4.3624E+01  1.0570E-02   4.3614E+01  0.000E+00  0.000E+00  0.000E+00  1.31878E+02  4.628E+00  1.034E+01  2.061E-03  8.288E-03  2.282E-03
   1    4   44     1    44    4.3614E+01  1.0568E-02   4.3603E+01  0.000E+00  0.000E+00  0.000E+00  1.31577E+02  4.627E+00  1.034E+01  2.061E-03  8.186E-03  2.382E-03
   1    4   45     1    45    4.3603E+01  1.0566E-02   4.3593E+01  0.000E+00  0.000E+00  0.000E+00  1.31277E+02  4.627E+00  1.034E+01  2.061E-03  8.068E-03  2.498E-03
   1    4   46     1    46    4.3593E+01  1.0565E-02   4.3582E+01  0.000E+00  0.000E+00  0.000E+00  1.30976E+02  4.626E+00  1.034E+01  2.061E-03  7.931E-03  2.633E-03
   1    4   47     1    47    4.3582E+01  1.0563E-02   4.3572E+01  0.000E+00  0.000E+00  0.000E+00  1.30676E+02  4.626E+00  1.034E+01  2.061E-03  7.770E-03  2.793E-03
   1    4   48     1    48    4.3572E+01  1.0561E-02   4.3561E+01  0.000E+00  0.000E+00  0.000E+00  1.30375E+02  4.625E+00  1.033E+01  2.060E-03  7.573E-03  2.988E-03
   1    4   49     1    49    4.3561E+01  1.0559E-02   4.3550E+01  0.000E+00  0.000E+00  0.000E+00  1.30075E+02  4.625E+00  1.033E+01  2.060E-03  7.310E-03  3.249E-03
   1    4   50     1    50    4.3550E+01  1.0557E-02   4.3540E+01  0.000E+00  0.000E+00  0.000E+00  1.29775E+02  4.625E+00  1.033E+01  2.060E-03  6.901E-03  3.656E-03
   1    4   51     1    51    4.3540E+01  1.0555E-02   4.3529E+01  0.000E+00  0.000E+00  0.000E+00  1.29474E+02  4.624E+00  1.033E+01  2.060E-03  6.988E-03  3.567E-03
   1    4   52     1    52    4.3529E+01  1.0553E-02   4.3519E+01  0.000E+00  0.000E+00  0.000E+00  1.29174E+02  4.624E+00  1.033E+01  2.060E-03  7.010E-03  3.543E-03
   1    4   53     1    53    4.3519E+01  1.0551E-02   4.3508E+01  0.000E+00  0.000E+00  0.000E+00  1.28873E+02  4.623E+00  1.033E+01  2.059E-03  7.003E-03  3.549E-03
   1    4   54     1    54    4.3508E+01  1.0549E-02   4.3498E+01  0.000E+00  0.000E+00  0.000E+00  1.28573E+02  4.623E+00  1.033E+01  2.059E-03  6.964E-03  3.586E-03
   1    4   55     1    55    4.3498E+01  1.0547E-02   4.3487E+01  0.000E+00  0.000E+00  0.000E+00  1.28272E+02  4.622E+00  1.033E+01  2.059E-03  6.855E-03  3.692E-03
   1    4   56     1    56    4.3487E+01  1.0545E-02   4.3477E+01  0.000E+00  0.000E+00  0.000E+00  1.27972E+02  4.622E+00  1.033E+01  2.059E-03  7.264E-03  3.281E-03
   1    4   57     1    57    4.3477E+01  1.0544E-02   4.3466E+01  0.000E+00  0.000E+00  0.000E+00  1.27672E+02  4.622E+00  1.032E+01  2.059E-03  7.523E-03  3.020E-03
   1    4   58     1    58    4.3466E+01  1.0542E-02   4.3455E+01  0.000E+00  0.000E+00  0.000E+00  1.27371E+02  4.621E+00  1.032E+01  2.058E-03  7.715E-03  2.826E-03
   1    4   59     1    59    4.3455E+01  1.0540E-02   4.3445E+01  0.000E+00  0.000E+00  0.000E+00  1.27071E+02  4.621E+00  1.032E+01  2.058E-03  7.871E-03  2.668E-03
   1    4   60     1    60    4.3445E+01  1.0538E-02   4.3434E+01  0.000E+00  0.000E+00  0.000E+00  1.26770E+02  4.620E+00  1.032E+01  2.058E-03  8.003E-03  2.535E-03
   1    4   61     1    61    4.3434E+01  1.0536E-02   4.3424E+01  0.000E+00  0.000E+00  0.000E+00  1.26470E+02  4.620E+00  1.032E+01  2.058E-03  8.116E-03  2.420E-03
   1    4   62     1    62    4.3424E+01  1.0534E-02   4.3413E+01  0.000E+00  0.000E+00  0.000E+00  1.26169E+02  4.619E+00  1.032E+01  2.058E-03  8.213E-03  2.321E-03
   1    4   63     1    63    4.3413E+01  1.0532E-02   4.3403E+01  0.000E+00  0.000E+00  0.000E+00  1.25869E+02  4.619E+00  1.032E+01  2.057E-03  8.298E-03  2.234E-03
   1    4   64     1    64    4.3403E+01  1.0530E-02   4.3392E+01  0.000E+00  0.000E+00  0.000E+00  1.25569E+02  4.619E+00  1.032E+01  2.057E-03  8.594E-03  1.936E-03
   1    4   65     1    65    4.3392E+01  1.0528E-02   4.3382E+01  0.000E+00  0.000E+00  0.000E+00  1.25268E+02  4.618E+00  1.032E+01  2.057E-03  9.881E-03  6.469E-04
   1    4   66     1    66    4.3382E+01  1.0526E-02   4.3371E+01  0.000E+00  0.000E+00  0.000E+00  1.24968E+02  4.618E+00  1.031E+01  2.057E-03  9.981E-03  5.455E-04
   1    4   67     1    67    4.3371E+01  1.0524E-02   4.3361E+01  0.000E+00  0.000E+00  0.000E+00  1.24667E+02  4.617E+00  1.031E+01  2.057E-03  1.003E-02  4.970E-04
   1    4   68     1    68    4.3361E+01  1.0523E-02   4.3350E+01  0.000E+00  0.000E+00  0.000E+00  1.24367E+02  4.617E+00  1.031E+01  2.056E-03  1.007E-02  4.552E-04
   1    4   69     1    69    4.3350E+01  1.0521E-02   4.3340E+01  0.000E+00  0.000E+00  0.000E+00  1.24066E+02  4.616E+00  1.031E+01  2.056E-03  1.010E-02  4.205E-04
   1    4   70     1    70    4.3340E+01  1.0519E-02   4.3329E+01  0.000E+00  0.000E+00  0.000E+00  1.23766E+02  4.616E+00  1.031E+01  2.056E-03  1.013E-02  3.918E-04
   1    4   71     1    71    4.3329E+01  1.0517E-02   4.3319E+01  0.000E+00  0.000E+00  0.000E+00  1.23466E+02  4.616E+00  1.031E+01  2.056E-03  1.015E-02  3.681E-04
   1    4   72     1    72    4.3319E+01  1.0515E-02   4.3308E+01  0.000E+00  0.000E+00  0.000E+00  1.23165E+02  4.615E+00  1.031E+01  2.056E-03  1.017E-02  3.481E-04
   1    4   73     1    73    4.3308E+01  1.0513E-02   4.3298E+01  0.000E+00  0.000E+00  0.000E+00  1.22865E+02  4.615E+00  1.031E+01  2.055E-03  1.018E-02  3.311E-04
   1    4   74     1    74    4.3298E+01  1.0511E-02   4.3287E+01  0.000E+00  0.000E+00  0.000E+00  1.22564E+02  4.614E+00  1.030E+01  2.055E-03  1.019E-02  3.162E-04
   1    4   75     1    75    4.3287E+01  1.0509E-02   4.3277E+01  0.000E+00  0.000E+00  0.000E+00  1.22264E+02  4.614E+00  1.030E+01  2.055E-03  1.021E-02  3.029E-04
   1    4   76     1    76    4.3277E+01  1.0507E-02   4.3266E+01  0.000E+00  0.000E+00  0.000E+00  1.21963E+02  4.613E+00  1.030E+01  2.055E-03  1.022E-02  2.906E-04
   1    4   77     1    77    4.3266E+01  1.0505E-02   4.3256E+01  0.000E+00  0.000E+00  0.000E+00  1.21663E+02  4.613E+00  1.030E+01  2.055E-03  1.023E-02  2.790E-04
   1    4   78     1    78    4.3256E+01  1.0504E-02   4.3245E+01  0.000E+00  0.000E+00  0.000E+00  1.21363E+02  4.613E+00  1.030E+01  2.054E-03  1.024E-02  2.676E-04
   1    4   79     1    79    4.3245E+01  1.0502E-02   4.3235E+01  0.000E+00  0.000E+00  0.000E+00  1.21062E+02  4.612E+00  1.030E+01  2.054E-03  1.025E-02  2.564E-04
   1    4   80     1    80    4.3235E+01  1.0500E-02   4.3224E+01  0.000E+00  0.000E+00  0.000E+00  1.20762E+02  4.612E+00  1.030E+01  2.054E-03  1.025E-02  2.452E-04
   1    4   81     1    81    4.3224E+01  1.0498E-02   4.3214E+01  0.000E+00  0.000E+00  0.000E+00  1.20461E+02  4.611E+00  1.030E+01  2.054E-03  1.026E-02  2.337E-04
   1    4   82     1    82    4.3214E+01  1.0496E-02   4.3203E+01  0.000E+00  0.000E+00  0.000E+00  1.20161E+02  4.611E+00  1.030E+01  2.054E-03  1.027E-02  2.220E-04
   1    4   83     1    83    4.3203E+01  1.0494E-02   4.3193E+01  0.000E+00  0.000E+00  0.000E+00  1.19860E+02  4.610E+00  1.029E+01  2.053E-03  1.028E-02  2.100E-04
   1    4   84     1    84    4.3193E+01  1.0492E-02   4.3182E+01  0.000E+00  0.000E+00  0.000E+00  1.19560E+02  4.610E+00  1.029E+01  2.053E-03  1.029E-02  1.976E-04
   1    4   85     1    85    4.3182E+01  1.0490E-02   4.3172E+01  0.000E+00  0.000E+00  0.000E+00  1.19260E+02  4.610E+00  1.029E+01  2.053E-03  1.031E-02  1.849E-04
   1    4   86     1    86    4.3172E+01  1.0488E-02   4.3161E+01  0.000E+00  0.000E+00  0.000E+00  1.18959E+02  4.609E+00  1.029E+01  2.053E-03  1.032E-02  1.718E-04
   1    4   87     1    87    4.3161E+01  1.0486E-02   4.3151E+01  0.000E+00  0.000E+00  0.000E+00  1.18659E+02  4.609E+00  1.029E+01  2.053E-03  1.033E-02  1.584E-04
   1    4   88     1    88    4.3151E+01  1.0484E-02   4.3140E+01  0.000E+00  0.000E+00  0.000E+00  1.18358E+02  4.608E+00  1.029E+01  2.052E-03  1.034E-02  1.446E-04
   1    4   89     1    89    4.3140E+01  1.0483E-02   4.3130E+01  0.000E+00  0.000E+00  0.000E+00  1.18058E+02  4.608E+00  1.029E+01  2.052E-03  1.035E-02  1.307E-04
   1    4   90     1    90    4.3130E+01  1.0481E-02   4.3119E+01  0.000E+00  0.000E+00  0.000E+00  1.17757E+02  4.607E+00  1.029E+01  2.052E-03  1.036E-02  1.165E-04
   1    4   91     1    91    4.3119E+01  1.0479E-02   4.3109E+01  0.000E+00  0.000E+00  0.000E+00  1.17457E+02  4.607E+00  1.029E+01  2.052E-03  1.038E-02  1.021E-04
   1    4   92     1    92    4.3109E+01  1.0477E-02   4.3098E+01  0.000E+00  0.000E+00  0.000E+00  1.17157E+02  4.607E+00  1.028E+01  2.052E-03  1.039E-02  8.778E-05
   1    4   93     1    93    4.3098E+01  1.0475E-02   4.3088E+01  0.000E+00  0.000E+00  0.000E+00  1.16856E+02  4.606E+00  1.028E+01  2.051E-03  1.040E-02  7.346E-05
   1    4   94     1    94    4.3088E+01  1.0473E-02   4.3077E+01  0.000E+00  0.000E+00  0.000E+00  1.16556E+02  4.606E+00  1.028E+01  2.051E-03  1.041E-02  5.936E-05
   1    4   95     1    95    4.3077E+01  1.0471E-02   4.3067E+01  0.000E+00  0.000E+00  0.000E+00  1.16255E+02  4.605E+00  1.028E+01  2.051E-03  1.043E-02  4.567E-05
   1    4   96     1    96    4.3067E+01  1.0469E-02   4.3056E+01  0.000E+00  0.000E+00  0.000E+00  1.15955E+02  4.605E+00  1.028E+01  2.051E-03  1.044E-02  3.272E-05
   1    4   97     1    97    4.3056E+01  1.0467E-02   4.3046E+01  0.000E+00  0.000E+00  0.000E+00  1.15654E+02  4.604E+00  1.028E+01  2.051E-03  1.045E-02  2.094E-05
   1    4   98     1    98    4.3046E+01  1.0466E-02   4.3035E+01  0.000E+00  0.000E+00  0.000E+00  1.15354E+02  4.604E+00  1.028E+01  2.050E-03  1.045E-02  1.098E-05
   1    4   99     1    99    4.3035E+01  1.0464E-02   4.3025E+01  0.000E+00  0.000E+00  0.000E+00  1.15054E+02  4.604E+00  1.028E+01  2.050E-03  1.046E-02  3.601E-06
   1    4  100     1   100    4.3025E+01  1.0462E-02   4.3014E+01  0.000E+00  0.000E+00  0.000E+00  1.14753E+02  4.603E+00  1.028E+01  2.050E-03  0.000E+00  0.000E+00



1
  VOLUMETRIC BUDGET FOR UNSATURATED ZONE BENEATH STREAMS AT END OF TIME STEP    30 STRESS PERIOD   7
  ------------------------------------------------------------------------------------------------

    CUMULATIVE VOLUMES             L**3    RATES FOR THIS TIME STEP         L**3/T
    ------------------                     ------------------------


          STREAM LOSS =      8309457.5000            STREAM LOSS =            1.0556
    CHANGE IN STORAGE =      2037491.8750      CHANGE IN STORAGE =        8.0736E-02
       RECHARGE TO GW =      6274880.0000         RECHARGE TO GW =            0.9749

             TOTAL IN =      8309457.5000               TOTAL IN =            1.0556

            TOTAL OUT =      8312372.0000              TOTAL OUT =            1.0556

             IN - OUT =        -2914.5000               IN - OUT =        1.1921E-07

  PERCENT DISCREPANCY =           -0.01      PERCENT DISCREPANCY =             0.00



1
  VOLUMETRIC BUDGET FOR ENTIRE MODEL AT END OF TIME STEP   30, STRESS PERIOD   7
  ------------------------------------------------------------------------------

     CUMULATIVE VOLUMES      L**3       RATES FOR THIS TIME STEP      L**3/T
     ------------------                 ------------------------

           IN:                                      IN:
           ---                                      ---
             STORAGE     =    42331332.0000               STORAGE     =           2.1329
       CONSTANT HEAD     =           0.0000         CONSTANT HEAD     =           0.0000
               WELLS     =           0.0000                 WELLS     =           0.0000
     HEAD DEP BOUNDS     =           0.0000       HEAD DEP BOUNDS     =           0.0000
      STREAM LEAKAGE     =     6274873.0000        STREAM LEAKAGE     =           0.9749

                TOTAL IN =    48606204.0000                  TOTAL IN =           3.1078

          OUT:                                     OUT:
          ----                                     ----
             STORAGE     =     1071564.5000               STORAGE     =           0.1205
       CONSTANT HEAD     =           0.0000         CONSTANT HEAD     =           0.0000
               WELLS     =    37687680.0000                 WELLS     =           2.6600
     HEAD DEP BOUNDS     =     9846957.0000       HEAD DEP BOUNDS     =           0.3273
      STREAM LEAKAGE     =           0.0000        STREAM LEAKAGE     =           0.0000

               TOTAL OUT =    48606200.0000                 TOTAL OUT =           3.1078

                IN - OUT =           4.0000                  IN - OUT =           0.0000

     PERCENT DISCREPANCY =           0.00         PERCENT DISCREPANCY =           0.00






         TIME SUMMARY AT END OF TIME STEP   30 IN STRESS PERIOD    7
                    SECONDS     MINUTES      HOURS       DAYS        YEARS
                    -----------------------------------------------------------
   TIME STEP LENGTH 2.49961E+05  4166.0      69.434      2.8931     7.92080E-03
 STRESS PERIOD TIME 2.59200E+06  43200.      720.00      30.000     8.21355E-02
         TOTAL TIME 1.81440E+07 3.02400E+05  5040.0      210.00     0.57495    
1
1
                            STRESS PERIOD NO.    8, LENGTH =   2592000.    
                            -----------------------------------------------

                              NUMBER OF TIME STEPS =    30

                               MULTIPLIER FOR DELT =     1.100

                            INITIAL TIME STEP SIZE =   15757.40    

 REUSING NON-PARAMETER WELLS FROM LAST STRESS PERIOD

      1 WELL 

 REUSING NON-PARAMETER GHB CELLS FROM LAST STRESS PERIOD

      7 GHB CELLS



 CLASSIFICATION & COUNT OF STREAM SEGMENTS BASED ON SOURCE OF INFLOW:

                HEADWATER     DIVERSION     RECEIVES TRIBUTARY FLOW
                ---------     ---------     -----------------------
                     1              0               0



                    INPUT DATA FOR EACH STREAM SEGMENT
 ---------------------------------------------------------------------------------------------

 SEGMENT    SEG.     INFLOW   OVERLAND   STREAM    STREAM   ICALC  OUTFLOW  DIVERSION PRIORITY
    NO.    LENGTH     RATE     RUNOFF      ET       PPT.    METH.  TO SEG.  FROM SEG.    NO.

      1  2.000E+04 3.391E+01 0.000E+00 0.000E+00 0.000E+00    2        0        0        0


         STREAMBED PROPERTIES AND STREAM DIMENSIONS

 SEGMENT     BED HYD. COND.      BED THICKNESS     ELEV.-TOP OF BED     WIDTH OF STREAM     DEPTH OF STREAM    STREAM ROUGHNESS
    No.     UPPER     LOWER     UPPER     LOWER     UPPER     LOWER     UPPER     LOWER     UPPER     LOWER   CHANNEL      BANK

     1  3.500E-07 3.500E-07                                                                                 3.000E-02 4.000E-02

  EIGHT POINT CROSS-SECTION DATA FOR SEGMENTS WITH ICALC = 2
    X VALUES X VALUES START FROM LEFT SIDE LOOKING DOWNSTREAM

     SEGMENT NO.        X1        X2        X3        X4        X5        X6        X7        X8
            1      0.000E+00 2.000E+00 4.000E+00 6.000E+00 8.000E+00 1.000E+01 1.200E+01 1.400E+01

    Z VALUES ARE RELATIVE TO STREAMBED ELEVATION

     SEGMENT NO.          Z1        Z2        Z3        Z4        Z5        Z6        Z7        Z8
            1      6.000E+00 4.500E+00 3.500E+00 0.000E+00 3.000E-01 3.500E+00 4.500E+00 6.000E+00



 
 SOLVING FOR HEAD 
                                                   Max.-Head-Change                         Max.-Flux-Residual
  Residual-Control   Outer-Iter.   Inner-Iter.     Column Row Layer    Maximum-Head-Change  Column Row Layer    Maximum-Flux-Residual          L2-NORM 
          0                 1           2            55    5     1      -0.5731593236E+00      55    5    1        -0.1804137655E+00      0.2900020283E+00
          0                 2           2            55    5     1       0.5158482237E-01      55    5    1         0.1773251156E-01      0.2926172992E-01
          0                 3           2            55    5     1      -0.4583583193E-02      55    5    1        -0.1597264229E-02      0.2645713350E-02
          0                 4           2            55    5     1       0.3638215511E-03      55    5    1         0.1279313166E-03      0.2119243635E-03
          0                 5           1            55    5     1      -0.2534365613E-04      55    5    1        -0.8993436812E-05      0.1489838102E-04
          0                 6           1            55    5     1       0.1521817149E-05      55    5    1         0.5449665412E-06      0.9027811250E-06
          0                 7           1            55    5     1      -0.7689541206E-07      55    5    1        -0.2778789132E-07      0.4603284567E-07

    ------------------------------------------------
       NWT REQUIRED            7 OUTER ITERATIONS 
       AND A TOTAL OF         11 INNER ITERATIONS.
    ------------------------------------------------

 NO OUTPUT CONTROL FOR STRESS PERIOD    8   TIME STEP    1
 
 SOLVING FOR HEAD 
                                                   Max.-Head-Change                         Max.-Flux-Residual
  Residual-Control   Outer-Iter.   Inner-Iter.     Column Row Layer    Maximum-Head-Change  Column Row Layer    Maximum-Flux-Residual          L2-NORM 
          0                 1           2            55    5     1      -0.4527828828E+00      55    5    1        -0.1201692844E+00      0.2290714985E+00
          0                 2           2            55    5     1       0.3879833444E-01      55    5    1         0.1178931359E-01      0.2298090710E-01
          0                 3           2            55    5     1      -0.3422311219E-02      55    5    1        -0.1062033697E-02      0.2089711446E-02
          0                 4           2            55    5     1       0.2716256621E-03      55    5    1         0.8506223959E-04      0.1674319056E-03
          0                 5           1            55    5     1      -0.1892106602E-04      55    5    1        -0.5979834956E-05      0.1177084507E-04
          0                 6           1            55    5     1       0.1136168463E-05      55    5    1         0.3623545939E-06      0.7132621730E-06
          0                 7           1            55    5     1      -0.5740889122E-07      55    5    1        -0.1847648212E-07      0.3636926548E-07

    ------------------------------------------------
       NWT REQUIRED            7 OUTER ITERATIONS 
       AND A TOTAL OF         11 INNER ITERATIONS.
    ------------------------------------------------

 NO OUTPUT CONTROL FOR STRESS PERIOD    8   TIME STEP    2
 
 SOLVING FOR HEAD 
                                                   Max.-Head-Change                         Max.-Flux-Residual
  Residual-Control   Outer-Iter.   Inner-Iter.     Column Row Layer    Maximum-Head-Change  Column Row Layer    Maximum-Flux-Residual          L2-NORM 
          0                 1           2            55    5     1      -0.3835994644E+00      55    5    1        -0.8653186030E-01      0.2036180306E+00
          0                 2           2            55    5     1       0.3174314786E-01      55    5    1         0.8491952946E-02      0.2037671357E-01
          0                 3           2            55    5     1      -0.2773702983E-02      55    5    1        -0.7649698097E-03      0.1864844088E-02
          0                 4           2            55    5     1       0.2200304143E-03      55    5    1         0.6126997525E-04      0.1495184521E-03
          0                 5           1            55    5     1      -0.1532738829E-04      55    5    1        -0.4307245508E-05      0.1051168703E-04
          0                 6           1            55    5     1       0.9203618515E-06      55    5    1         0.2610019334E-06      0.6369665718E-06

    ------------------------------------------------
       NWT REQUIRED            6 OUTER ITERATIONS 
       AND A TOTAL OF         10 INNER ITERATIONS.
    ------------------------------------------------

 NO OUTPUT CONTROL FOR STRESS PERIOD    8   TIME STEP    3
 
 SOLVING FOR HEAD 
                                                   Max.-Head-Change                         Max.-Flux-Residual
  Residual-Control   Outer-Iter.   Inner-Iter.     Column Row Layer    Maximum-Head-Change  Column Row Layer    Maximum-Flux-Residual          L2-NORM 
          0                 1           2            55    5     1      -0.3453354339E+00      55    5    1        -0.6702012357E-01      0.1920476703E+00
          0                 2           2            55    5     1       0.2787800410E-01      55    5    1         0.6580432153E-02      0.1924006553E-01
          0                 3           2            55    5     1      -0.2410038324E-02      55    5    1        -0.5927423728E-03      0.1771898192E-02
          0                 4           2            55    5     1       0.1909542647E-03      55    5    1         0.4747617911E-04      0.1422352895E-03
          0                 5           1            55    5     1      -0.1330240531E-04      55    5    1        -0.3337544475E-05      0.1000041382E-04
          0                 6           1            55    5     1       0.7987577935E-06      55    5    1         0.2022419339E-06      0.6059880817E-06

    ------------------------------------------------
       NWT REQUIRED            6 OUTER ITERATIONS 
       AND A TOTAL OF         10 INNER ITERATIONS.
    ------------------------------------------------

 NO OUTPUT CONTROL FOR STRESS PERIOD    8   TIME STEP    4
 
 SOLVING FOR HEAD 
                                                   Max.-Head-Change                         Max.-Flux-Residual
  Residual-Control   Outer-Iter.   Inner-Iter.     Column Row Layer    Maximum-Head-Change  Column Row Layer    Maximum-Flux-Residual          L2-NORM 
          0                 1           2            55    5     1      -0.3248690528E+00      55    5    1        -0.5478430681E-01      0.1858940977E+00
          0                 2           2            55    5     1       0.2573862565E-01      55    5    1         0.5379686714E-02      0.1866018667E-01
          0                 3           2            55    5     1      -0.2199426802E-02      55    5    1        -0.4845621288E-03      0.1728911991E-02
          0                 4           2            55    5     1       0.1739173061E-03      55    5    1         0.3881194964E-04      0.1390291127E-03
          0                 5           1            55    5     1      -0.1211547735E-04      55    5    1        -0.2728450803E-05      0.9776753770E-05
          0                 6           1            55    5     1       0.7274886882E-06      55    5    1         0.1653332957E-06      0.5924390735E-06

    ------------------------------------------------
       NWT REQUIRED            6 OUTER ITERATIONS 
       AND A TOTAL OF         10 INNER ITERATIONS.
    ------------------------------------------------

 NO OUTPUT CONTROL FOR STRESS PERIOD    8   TIME STEP    5
 
 SOLVING FOR HEAD 
                                                   Max.-Head-Change                         Max.-Flux-Residual
  Residual-Control   Outer-Iter.   Inner-Iter.     Column Row Layer    Maximum-Head-Change  Column Row Layer    Maximum-Flux-Residual          L2-NORM 
          0                 1           2            55    5     1      -0.3175609990E+00      55    5    1        -0.4705436420E-01      0.1823463090E+00
          0                 2           2            55    5     1       0.2480215184E-01      55    5    1         0.4617889808E-02      0.1833670964E-01
          0                 3           2            55    6     1      -0.2112724364E-02      55    5    1        -0.4159450178E-03      0.1709068058E-02
          0                 4           2            55    6     1       0.1674248969E-03      55    5    1         0.3331630602E-04      0.1377592359E-03
          0                 5           1            55    6     1      -0.1166280171E-04      55    5    1        -0.2342108192E-05      0.9690701542E-05
          0                 6           1            55    6     1       0.7003075711E-06      55    5    1         0.1419224820E-06      0.5872375038E-06

    ------------------------------------------------
       NWT REQUIRED            6 OUTER ITERATIONS 
       AND A TOTAL OF         10 INNER ITERATIONS.
    ------------------------------------------------

 NO OUTPUT CONTROL FOR STRESS PERIOD    8   TIME STEP    6
 
 SOLVING FOR HEAD 
                                                   Max.-Head-Change                         Max.-Flux-Residual
  Residual-Control   Outer-Iter.   Inner-Iter.     Column Row Layer    Maximum-Head-Change  Column Row Layer    Maximum-Flux-Residual          L2-NORM 
          0                 1           2            55    5     1      -0.3188170509E+00      55    5    1        -0.4181653849E-01      0.1799918040E+00
          0                 2           2            55    6     1       0.2475443892E-01      55    5    1         0.4098565262E-02      0.1812438520E-01
          0                 3           2            55    6     1      -0.2171891720E-02      55    5    1        -0.3691849749E-03      0.1699382994E-02
          0                 4           2            55    6     1       0.1719463855E-03      55    5    1         0.2957118005E-04      0.1373821355E-03
          0                 5           1            55    6     1      -0.1197657990E-04      55    5    1        -0.2078826613E-05      0.9669870970E-05
          0                 6           1            55    6     1       0.7191504333E-06      55    5    1         0.1259695475E-06      0.5860060378E-06

    ------------------------------------------------
       NWT REQUIRED            6 OUTER ITERATIONS 
       AND A TOTAL OF         10 INNER ITERATIONS.
    ------------------------------------------------

 NO OUTPUT CONTROL FOR STRESS PERIOD    8   TIME STEP    7
 
 SOLVING FOR HEAD 
                                                   Max.-Head-Change                         Max.-Flux-Residual
  Residual-Control   Outer-Iter.   Inner-Iter.     Column Row Layer    Maximum-Head-Change  Column Row Layer    Maximum-Flux-Residual          L2-NORM 
          0                 1           2            55    5     1      -0.3264642767E+00      55    5    1        -0.3810965320E-01      0.1782622208E+00
          0                 2           2            55    6     1       0.2566780012E-01      55    5    1         0.3727724211E-02      0.1797074359E-01
          0                 3           2            55    6     1      -0.2243656257E-02      55    5    1        -0.3358126085E-03      0.1695156817E-02
          0                 4           2            55    6     1       0.1773978177E-03      55    5    1         0.2689825941E-04      0.1375123468E-03
          0                 5           1            55    6     1      -0.1235379096E-04      55    5    1        -0.1890920790E-05      0.9687498845E-05
          0                 6           1            55    6     1       0.7417986734E-06      55    5    1         0.1145844009E-06      0.5871328356E-06

    ------------------------------------------------
       NWT REQUIRED            6 OUTER ITERATIONS 
       AND A TOTAL OF         10 INNER ITERATIONS.
    ------------------------------------------------

 NO OUTPUT CONTROL FOR STRESS PERIOD    8   TIME STEP    8
 
 SOLVING FOR HEAD 
                                                   Max.-Head-Change                         Max.-Flux-Residual
  Residual-Control   Outer-Iter.   Inner-Iter.     Column Row Layer    Maximum-Head-Change  Column Row Layer    Maximum-Flux-Residual          L2-NORM 
          0                 1           2            55    5     1      -0.3404696645E+00      55    5    1        -0.3563456665E-01      0.1769663145E+00
          0                 2           2            55    6     1       0.2679117159E-01      55    5    1         0.3475290266E-02      0.1786262150E-01
          0                 3           2            55    6     1      -0.2332030616E-02      55    5    1        -0.3131226405E-03      0.1695172884E-02
          0                 4           2            55    7     1       0.1843478567E-03      55    5    1         0.2508085635E-04      0.1380460506E-03
          0                 5           1            55    7     1      -0.1283856828E-04      55    5    1        -0.1763157694E-05      0.9736787041E-05
          0                 6           1            55    7     1       0.7709063987E-06      55    5    1         0.1068429698E-06      0.5902237738E-06

    ------------------------------------------------
       NWT REQUIRED            6 OUTER ITERATIONS 
       AND A TOTAL OF         10 INNER ITERATIONS.
    ------------------------------------------------

 NO OUTPUT CONTROL FOR STRESS PERIOD    8   TIME STEP    9
 
 SOLVING FOR HEAD 
                                                   Max.-Head-Change                         Max.-Flux-Residual
  Residual-Control   Outer-Iter.   Inner-Iter.     Column Row Layer    Maximum-Head-Change  Column Row Layer    Maximum-Flux-Residual          L2-NORM 
          0                 1           2            55    5     1      -0.3588670082E+00      55    5    1        -0.3375286241E-01      0.1758665035E+00
          0                 2           2            55    6     1       0.2812331135E-01      55    5    1         0.3279132003E-02      0.1775967264E-01
          0                 3           2            55    7     1      -0.2458115367E-02      55    5    1        -0.2955136385E-03      0.1695923580E-02
          0                 4           2            55    7     1       0.1945094645E-03      55    5    1         0.2367036338E-04      0.1387386383E-03
          0                 5           1            55    7     1      -0.1354309295E-04      55    5    1        -0.1664000203E-05      0.9802247690E-05
          0                 6           1            55    7     1       0.8131868853E-06      55    5    1         0.1008329664E-06      0.5943882233E-06

    ------------------------------------------------
       NWT REQUIRED            6 OUTER ITERATIONS 
       AND A TOTAL OF         10 INNER ITERATIONS.
    ------------------------------------------------

 NO OUTPUT CONTROL FOR STRESS PERIOD    8   TIME STEP   10
 
 SOLVING FOR HEAD 
                                                   Max.-Head-Change                         Max.-Flux-Residual
  Residual-Control   Outer-Iter.   Inner-Iter.     Column Row Layer    Maximum-Head-Change  Column Row Layer    Maximum-Flux-Residual          L2-NORM 
          0                 1           2            55    5     1      -0.3813744649E+00      55    5    1        -0.3229208504E-01      0.1749204126E+00
          0                 2           2            55    6     1       0.2967059906E-01      55    5    1         0.3121917472E-02      0.1766902992E-01
          0                 3           2            55    7     1      -0.2598006330E-02      55    5    1        -0.2814259511E-03      0.1697875161E-02
          0                 4           2            55    7     1       0.2053338060E-03      55    5    1         0.2254185549E-04      0.1396009914E-03
          0                 5           1            55    7     1      -0.1429168390E-04      55    5    1        -0.1584666153E-05      0.9884528929E-05
          0                 6           1            55    7     1       0.8580823183E-06      55    5    1         0.9602453388E-07      0.5996938850E-06

    ------------------------------------------------
       NWT REQUIRED            6 OUTER ITERATIONS 
       AND A TOTAL OF         10 INNER ITERATIONS.
    ------------------------------------------------

 NO OUTPUT CONTROL FOR STRESS PERIOD    8   TIME STEP   11
 
 SOLVING FOR HEAD 
                                                   Max.-Head-Change                         Max.-Flux-Residual
  Residual-Control   Outer-Iter.   Inner-Iter.     Column Row Layer    Maximum-Head-Change  Column Row Layer    Maximum-Flux-Residual          L2-NORM 
          0                 1           2            55    5     1      -0.4088651622E+00      55    5    1        -0.3130057411E-01      0.1741539412E+00
          0                 2           2            55    6     1       0.3146902404E-01      55    5    1         0.3007056144E-02      0.1759158694E-01
          0                 3           2            55    7     1      -0.2751576632E-02      55    5    1        -0.2711741256E-03      0.1701070437E-02
          0                 4           2            55    7     1       0.2171472599E-03      55    4    1        -0.2222740105E-04      0.1406353417E-03
          0                 5           1            55    7     1      -0.1510620173E-04      55    4    1         0.1602219969E-05      0.9984303508E-05
          0                 6           1            55    7     1       0.9068821141E-06      55    4    1        -0.9723173466E-07      0.6062224151E-06

    ------------------------------------------------
       NWT REQUIRED            6 OUTER ITERATIONS 
       AND A TOTAL OF         10 INNER ITERATIONS.
    ------------------------------------------------

 NO OUTPUT CONTROL FOR STRESS PERIOD    8   TIME STEP   12
 
 SOLVING FOR HEAD 
                                                   Max.-Head-Change                         Max.-Flux-Residual
  Residual-Control   Outer-Iter.   Inner-Iter.     Column Row Layer    Maximum-Head-Change  Column Row Layer    Maximum-Flux-Residual          L2-NORM 
          0                 1           2            55    5     1      -0.4404201054E+00      55    5    1        -0.3049056236E-01      0.1734723448E+00
          0                 2           2            55    6     1       0.3352070031E-01      55    5    1         0.2906399841E-02      0.1752594707E-01
          0                 3           2            55    7     1      -0.2921675413E-02      55    5    1        -0.2622200275E-03      0.1705393251E-02
          0                 4           2            55    7     1       0.2301534149E-03      55    4    1        -0.2289682734E-04      0.1418071240E-03
          0                 5           1            55    7     1      -0.1599977411E-04      55    4    1         0.1662563096E-05      0.1009813253E-04
          0                 6           1            55    7     1       0.9603422388E-06      55    4    1        -0.1010671506E-06      0.6137588913E-06

    ------------------------------------------------
       NWT REQUIRED            6 OUTER ITERATIONS 
       AND A TOTAL OF         10 INNER ITERATIONS.
    ------------------------------------------------

 NO OUTPUT CONTROL FOR STRESS PERIOD    8   TIME STEP   13
 
 SOLVING FOR HEAD 
                                                   Max.-Head-Change                         Max.-Flux-Residual
  Residual-Control   Outer-Iter.   Inner-Iter.     Column Row Layer    Maximum-Head-Change  Column Row Layer    Maximum-Flux-Residual          L2-NORM 
          0                 1           2            55    5     1      -0.4762536703E+00      55    5    1        -0.2982337823E-01      0.1728022605E+00
          0                 2           2            55    6     1       0.3583818462E-01      55    5    1         0.2815241181E-02      0.1746206613E-01
          0                 3           2            55    7     1      -0.3110400376E-02      55    5    1        -0.2541433748E-03      0.1709557779E-02
          0                 4           2            55    7     1       0.2444930071E-03      55    4    1        -0.2358011684E-04      0.1430229054E-03
          0                 5           1            55    7     1      -0.1698092773E-04      55    4    1         0.1725774145E-05      0.1022114706E-04
          0                 6           1            55    7     1       0.1018930919E-05      55    4    1        -0.1051493350E-06      0.6220890389E-06
          0                 7           1            55    7     1      -0.5147577808E-07      55    4    1         0.5357395416E-08      0.3173991033E-07

    ------------------------------------------------
       NWT REQUIRED            7 OUTER ITERATIONS 
       AND A TOTAL OF         11 INNER ITERATIONS.
    ------------------------------------------------

 NO OUTPUT CONTROL FOR STRESS PERIOD    8   TIME STEP   14
 
 SOLVING FOR HEAD 
                                                   Max.-Head-Change                         Max.-Flux-Residual
  Residual-Control   Outer-Iter.   Inner-Iter.     Column Row Layer    Maximum-Head-Change  Column Row Layer    Maximum-Flux-Residual          L2-NORM 
          0                 1           2            55    5     1      -0.5173591257E+00      55    5    1        -0.2936901950E-01      0.1721660484E+00
          0                 2           2            55    6     1       0.3845822557E-01      55    5    1         0.2738512857E-02      0.1740681625E-01
          0                 3           2            55    7     1      -0.3320228965E-02      55    4    1         0.2556209425E-03      0.1714549420E-02
          0                 4           2            55    7     1       0.2603324233E-03      55    4    1        -0.2428508567E-04      0.1443141723E-03
          0                 5           1            55    7     1      -0.1805970367E-04      55    4    1         0.1792358045E-05      0.1035207596E-04
          0                 6           1            55    7     1       0.1083194749E-05      55    4    1        -0.1095166562E-06      0.6310391277E-06
          0                 7           1            55    7     1      -0.5471585019E-07      55    4    1         0.5581050733E-08      0.3220887108E-07

    ------------------------------------------------
       NWT REQUIRED            7 OUTER ITERATIONS 
       AND A TOTAL OF         11 INNER ITERATIONS.
    ------------------------------------------------

 NO OUTPUT CONTROL FOR STRESS PERIOD    8   TIME STEP   15
 
 SOLVING FOR HEAD 
                                                   Max.-Head-Change                         Max.-Flux-Residual
  Residual-Control   Outer-Iter.   Inner-Iter.     Column Row Layer    Maximum-Head-Change  Column Row Layer    Maximum-Flux-Residual          L2-NORM 
          0                 1           2            55    5     1      -0.5636727448E+00      55    5    1        -0.2901081840E-01      0.1715174758E+00
          0                 2           2            55    6     1       0.4139709487E-01      55    5    1         0.2663760687E-02      0.1733639783E-01
          0                 3           2            55    7     1      -0.3553009032E-02      55    4    1         0.2590115463E-03      0.1717984305E-02
          0                 4           2            55    7     1       0.2777864316E-03      55    4    1        -0.2498123706E-04      0.1455372740E-03
          0                 5           1            55    7     1      -0.1924235154E-04      55    4    1         0.1859933409E-05      0.1048419614E-04
          0                 6           1            55    7     1       0.1153439277E-05      55    4    1        -0.1140251773E-06      0.6403251709E-06
          0                 7           1            55    7     1      -0.5825332740E-07      55    4    1         0.5813767689E-08      0.3270107218E-07

    ------------------------------------------------
       NWT REQUIRED            7 OUTER ITERATIONS 
       AND A TOTAL OF         11 INNER ITERATIONS.
    ------------------------------------------------

 NO OUTPUT CONTROL FOR STRESS PERIOD    8   TIME STEP   16
 
 SOLVING FOR HEAD 
                                                   Max.-Head-Change                         Max.-Flux-Residual
  Residual-Control   Outer-Iter.   Inner-Iter.     Column Row Layer    Maximum-Head-Change  Column Row Layer    Maximum-Flux-Residual          L2-NORM 
          0                 1           2            55    5     1      -0.6156983564E+00      55    5    1        -0.2873295058E-01      0.1709387901E+00
          0                 2           2            55    5     1       0.4470891438E-01      55    5    1         0.2587460973E-02      0.1726689366E-01
          0                 3           2            55    7     1      -0.3810370196E-02      55    4    1         0.2621375768E-03      0.1720902375E-02
          0                 4           2            55    7     1       0.2969495683E-03      55    4    1        -0.2565645688E-04      0.1467550344E-03
          0                 5           1            55    7     1      -0.2053347736E-04      55    4    1         0.1927415488E-05      0.1062212419E-04
          0                 6           1            55    7     1       0.1229858457E-05      55    4    1        -0.1186047731E-06      0.6502882961E-06
          0                 7           1            55    7     1      -0.6209571349E-07      55    4    1         0.6052173873E-08      0.3323685936E-07

    ------------------------------------------------
       NWT REQUIRED            7 OUTER ITERATIONS 
       AND A TOTAL OF         11 INNER ITERATIONS.
    ------------------------------------------------

 NO OUTPUT CONTROL FOR STRESS PERIOD    8   TIME STEP   17
 
 SOLVING FOR HEAD 
                                                   Max.-Head-Change                         Max.-Flux-Residual
  Residual-Control   Outer-Iter.   Inner-Iter.     Column Row Layer    Maximum-Head-Change  Column Row Layer    Maximum-Flux-Residual          L2-NORM 
          0                 1           2            55    5     1      -0.6744423227E+00      55    5    1        -0.2857297772E-01      0.1704096278E+00
          0                 2           2            55    5     1       0.4876222689E-01      55    5    1         0.2510127434E-02      0.1719612705E-01
          0                 3           2            55    7     1      -0.4094429558E-02      55    4    1         0.2649987980E-03      0.1723339101E-02
          0                 4           2            55    7     1       0.3179509287E-03      55    4    1        -0.2630903787E-04      0.1479522644E-03
          0                 5           1            55    7     1      -0.2193982610E-04      55    4    1         0.1994516845E-05      0.1076316826E-04
          0                 6           1            55    7     1       0.1312760062E-05      55    4    1        -0.1232338853E-06      0.6607137527E-06
          0                 7           1            55    7     1      -0.6625563312E-07      55    4    1         0.6295510779E-08      0.3380435471E-07

    ------------------------------------------------
       NWT REQUIRED            7 OUTER ITERATIONS 
       AND A TOTAL OF         11 INNER ITERATIONS.
    ------------------------------------------------

 NO OUTPUT CONTROL FOR STRESS PERIOD    8   TIME STEP   18
 
 SOLVING FOR HEAD 
                                                   Max.-Head-Change                         Max.-Flux-Residual
  Residual-Control   Outer-Iter.   Inner-Iter.     Column Row Layer    Maximum-Head-Change  Column Row Layer    Maximum-Flux-Residual          L2-NORM 
          0                 1           3            55    5     1      -0.7399173787E+00      55    5    1        -0.2842146645E-01      0.1698798548E+00
          0                 2           2            55    5     1       0.5323460587E-01      55    5    1         0.2418863939E-02      0.1714740082E-01
          0                 3           2            55    7     1      -0.4406374516E-02      55    4    1         0.2672720159E-03      0.1728756969E-02
          0                 4           2            55    7     1       0.3408479790E-03      55    4    1        -0.2690594339E-04      0.1493587580E-03
          0                 5           1            55    7     1      -0.2346313502E-04      55    4    1         0.2058515710E-05      0.1091648150E-04
          0                 6           1            55    7     1       0.1402167796E-05      55    4    1        -0.1277349093E-06      0.6717975458E-06
          0                 7           1            55    7     1      -0.7073159887E-07      55    4    1         0.6534851771E-08      0.3440463890E-07

    ------------------------------------------------
       NWT REQUIRED            7 OUTER ITERATIONS 
       AND A TOTAL OF         12 INNER ITERATIONS.
    ------------------------------------------------

 NO OUTPUT CONTROL FOR STRESS PERIOD    8   TIME STEP   19
 
 SOLVING FOR HEAD 
                                                   Max.-Head-Change                         Max.-Flux-Residual
  Residual-Control   Outer-Iter.   Inner-Iter.     Column Row Layer    Maximum-Head-Change  Column Row Layer    Maximum-Flux-Residual          L2-NORM 
          0                 1           3            55    5     1      -0.8135556594E+00      55    5    1        -0.2834955694E-01      0.1693326009E+00
          0                 2           2            55    5     1       0.5820688813E-01      55    6    1         0.2382780002E-02      0.1708090795E-01
          0                 3           2            55    7     1      -0.4748518293E-02      55    4    1         0.2689946434E-03      0.1730322072E-02
          0                 4           2            55    7     1       0.3657744401E-03      55    4    1        -0.2744940030E-04      0.1504481208E-03
          0                 5           1            55    7     1      -0.2510973680E-04      55    4    1         0.2119345306E-05      0.1105514083E-04
          0                 6           1            55    7     1       0.1498312524E-05      55    4    1        -0.1320848853E-06      0.6825167584E-06
          0                 7           1            55    7     1      -0.7553057429E-07      55    4    1         0.6768963168E-08      0.3500721499E-07

    ------------------------------------------------
       NWT REQUIRED            7 OUTER ITERATIONS 
       AND A TOTAL OF         12 INNER ITERATIONS.
    ------------------------------------------------

 NO OUTPUT CONTROL FOR STRESS PERIOD    8   TIME STEP   20
 
 SOLVING FOR HEAD 
                                                   Max.-Head-Change                         Max.-Flux-Residual
  Residual-Control   Outer-Iter.   Inner-Iter.     Column Row Layer    Maximum-Head-Change  Column Row Layer    Maximum-Flux-Residual          L2-NORM 
          0                 1           3            55    5     1      -0.8968337142E+00      55    5    1        -0.2837703024E-01      0.1687998027E+00
          0                 2           2            55    5     1       0.6374798734E-01      55    6    1         0.2390219887E-02      0.1698961782E-01
          0                 3           2            55    7     1      -0.5124565275E-02      55    4    1         0.2701056058E-03      0.1729025707E-02
          0                 4           2            55    7     1       0.3929664134E-03      55    4    1        -0.2793525728E-04      0.1513157431E-03
          0                 5           1            55    7     1      -0.2689236978E-04      55    4    1         0.2176515413E-05      0.1118182699E-04
          0                 6           1            55    7     1       0.1601824761E-05      55    4    1        -0.1362295594E-06      0.6927494105E-06
          0                 7           1            55    7     1      -0.8067983638E-07      55    4    1         0.6994526291E-08      0.3559339916E-07

    ------------------------------------------------
       NWT REQUIRED            7 OUTER ITERATIONS 
       AND A TOTAL OF         12 INNER ITERATIONS.
    ------------------------------------------------

 NO OUTPUT CONTROL FOR STRESS PERIOD    8   TIME STEP   21
 
 SOLVING FOR HEAD 
                                                   Max.-Head-Change                         Max.-Flux-Residual
  Residual-Control   Outer-Iter.   Inner-Iter.     Column Row Layer    Maximum-Head-Change  Column Row Layer    Maximum-Flux-Residual          L2-NORM 
          0                 1           3            55    5     1      -0.9907338891E+00      55    5    1        -0.2842581365E-01      0.1682911966E+00
          0                 2           2            55    5     1       0.6988907680E-01      55    6    1         0.2408769865E-02      0.1691934467E-01
          0                 3           2            55    7     1      -0.5538779484E-02      55    4    1         0.2704628515E-03      0.1730251606E-02
          0                 4           2            55    7     1       0.4227003652E-03      55    4    1        -0.2835801548E-04      0.1523586353E-03
          0                 5           1            55    7     1      -0.2882576346E-04      55    4    1         0.2229731561E-05      0.1131875224E-04
          0                 6           1            55    7     1       0.1713401560E-05      55    4    1        -0.1401321488E-06      0.7035041853E-06
          0                 7           1            55    7     1      -0.8620711353E-07      55    4    1         0.7208222907E-08      0.3620655050E-07

    ------------------------------------------------
       NWT REQUIRED            7 OUTER ITERATIONS 
       AND A TOTAL OF         12 INNER ITERATIONS.
    ------------------------------------------------

 NO OUTPUT CONTROL FOR STRESS PERIOD    8   TIME STEP   22
 
 SOLVING FOR HEAD 
                                                   Max.-Head-Change                         Max.-Flux-Residual
  Residual-Control   Outer-Iter.   Inner-Iter.     Column Row Layer    Maximum-Head-Change  Column Row Layer    Maximum-Flux-Residual          L2-NORM 
          0                 1           3            55    5     1      -0.1098443819E+01      55    5    1        -0.2858582020E-01      0.1678206058E+00
          0                 2           2            55    5     1       0.7679844503E-01      55    6    1         0.2441602237E-02      0.1683688499E-01
          0                 3           2            55    7     1      -0.5999088390E-02      55    4    1         0.2702249981E-03      0.1728660466E-02
          0                 4           2            55    7     1       0.4554994744E-03      55    4    1        -0.2874241101E-04      0.1531608602E-03
          0                 5           1            55    7     1      -0.3093907741E-04      55    4    1         0.2280929259E-05      0.1144292522E-04
          0                 6           1            55    7     1       0.1834554474E-05      55    4    1        -0.1438713484E-06      0.7137584105E-06
          0                 7           1            55    7     1      -0.9218137897E-07      50    4    1         0.7416071757E-08      0.3680579268E-07

    ------------------------------------------------
       NWT REQUIRED            7 OUTER ITERATIONS 
       AND A TOTAL OF         12 INNER ITERATIONS.
    ------------------------------------------------

 NO OUTPUT CONTROL FOR STRESS PERIOD    8   TIME STEP   23
 
 SOLVING FOR HEAD 
                                                   Max.-Head-Change                         Max.-Flux-Residual
  Residual-Control   Outer-Iter.   Inner-Iter.     Column Row Layer    Maximum-Head-Change  Column Row Layer    Maximum-Flux-Residual          L2-NORM 
          0                 1           3            55    5     1      -0.1223052295E+01      55    5    1        -0.2880492311E-01      0.1674493371E+00
          0                 2           2            55    5     1       0.8480865306E-01      55    6    1         0.2494952002E-02      0.1673824487E-01
          0                 3           2            55    7     1      -0.6515948983E-02      55    4    1         0.2578555305E-03      0.1723342800E-02
          0                 4           2            55    7     1       0.4921748391E-03      55    4    1        -0.2820985322E-04      0.1536054482E-03
          0                 5           1            55    7     1      -0.3328240179E-04      55    4    1         0.2279402562E-05      0.1154509912E-04
          0                 6           1            55    7     1       0.1967727444E-05      55    4    1        -0.1452463390E-06      0.7230010552E-06
          0                 7           1            55    7     1      -0.9869853139E-07      50    4    1         0.7571634875E-08      0.3737308942E-07

    ------------------------------------------------
       NWT REQUIRED            7 OUTER ITERATIONS 
       AND A TOTAL OF         12 INNER ITERATIONS.
    ------------------------------------------------

 NO OUTPUT CONTROL FOR STRESS PERIOD    8   TIME STEP   24
 
 SOLVING FOR HEAD 
                                                   Max.-Head-Change                         Max.-Flux-Residual
  Residual-Control   Outer-Iter.   Inner-Iter.     Column Row Layer    Maximum-Head-Change  Column Row Layer    Maximum-Flux-Residual          L2-NORM 
          0                 1           3            55    5     1      -0.1362263311E+01      55    5    1        -0.2918750045E-01      0.1669852102E+00
          0                 2           2            55    5     1       0.9293169707E-01      55    6    1         0.2570763738E-02      0.1668731480E-01
          0                 3           2            55    7     1      -0.7071786322E-02      54    4    1         0.2577399821E-03      0.1724913378E-02
          0                 4           2            55    7     1       0.5315664070E-03      55    4    1        -0.2812395393E-04      0.1545278085E-03
          0                 5           1            55    7     1      -0.3580233645E-04      55    4    1         0.2296171940E-05      0.1166926391E-04
          0                 6           1            55    7     1       0.2111694228E-05      50    4    1        -0.1471221633E-06      0.7329009948E-06
          0                 7           1            55    7     1      -0.1057625706E-06      50    4    1         0.7723004458E-08      0.3795417619E-07

    ------------------------------------------------
       NWT REQUIRED            7 OUTER ITERATIONS 
       AND A TOTAL OF         12 INNER ITERATIONS.
    ------------------------------------------------

 NO OUTPUT CONTROL FOR STRESS PERIOD    8   TIME STEP   25
 
 SOLVING FOR HEAD 
                                                   Max.-Head-Change                         Max.-Flux-Residual
  Residual-Control   Outer-Iter.   Inner-Iter.     Column Row Layer    Maximum-Head-Change  Column Row Layer    Maximum-Flux-Residual          L2-NORM 
          0                 1           3            55    5     1      -0.1519109414E+01      55    5    1        -0.2957744665E-01      0.1663589517E+00
          0                 2           2            55    5     1       0.1014087991E+00      55    6    1         0.2672976400E-02      0.1663137154E-01
          0                 3           2            55    7     1      -0.7671336336E-02      54    4    1         0.2584577912E-03      0.1725455333E-02
          0                 4           2            55    7     1       0.5739007941E-03      54    4    1        -0.2803452118E-04      0.1553041212E-03
          0                 5           1            55    7     1      -0.3850156284E-04      55    4    1         0.2291736073E-05      0.1177878625E-04
          0                 6           1            55    7     1       0.2265999063E-05      50    4    1        -0.1481734433E-06      0.7416808413E-06
          0                 7           1            55    7     1      -0.1133230126E-06      50    4    1         0.7816669090E-08      0.3847630941E-07

    ------------------------------------------------
       NWT REQUIRED            7 OUTER ITERATIONS 
       AND A TOTAL OF         12 INNER ITERATIONS.
    ------------------------------------------------

 NO OUTPUT CONTROL FOR STRESS PERIOD    8   TIME STEP   26
 
 SOLVING FOR HEAD 
                                                   Max.-Head-Change                         Max.-Flux-Residual
  Residual-Control   Outer-Iter.   Inner-Iter.     Column Row Layer    Maximum-Head-Change  Column Row Layer    Maximum-Flux-Residual          L2-NORM 
          0                 1           3            55    5     1      -0.1701840635E+01      55    5    1        -0.3004346719E-01      0.1657005193E+00
          0                 2           3            55    5     1       0.1104029706E+00      55    6    1         0.2817197636E-02      0.1657517464E-01
          0                 3           2            55    7     1      -0.8331553418E-02      54    4    1         0.2585772867E-03      0.1721180869E-02
          0                 4           2            55    7     1       0.6202828553E-03      54    4    1        -0.2826078549E-04      0.1555490582E-03
          0                 5           1            55    7     1      -0.4143995750E-04      54    4    1         0.2309649370E-05      0.1185230506E-04
          0                 6           1            55    7     1       0.2434032050E-05      54    4    1        -0.1505673688E-06      0.7486397039E-06
          0                 7           1            55    7     1      -0.1215390942E-06      54    4    1         0.7981056704E-08      0.3893445262E-07

    ------------------------------------------------
       NWT REQUIRED            7 OUTER ITERATIONS 
       AND A TOTAL OF         13 INNER ITERATIONS.
    ------------------------------------------------

 NO OUTPUT CONTROL FOR STRESS PERIOD    8   TIME STEP   27
 
 SOLVING FOR HEAD 
                                                   Max.-Head-Change                         Max.-Flux-Residual
  Residual-Control   Outer-Iter.   Inner-Iter.     Column Row Layer    Maximum-Head-Change  Column Row Layer    Maximum-Flux-Residual          L2-NORM 
          0                 1           3            55    5     1      -0.1916365844E+01      55    5    1        -0.3064213912E-01      0.1650390843E+00
          0                 2           3            55    5     1       0.1196041484E+00      55    6    1         0.3026132172E-02      0.1660531668E-01
          0                 3           2            55    7     1      -0.9063275312E-02      55    6    1        -0.2735004971E-03      0.1724138921E-02
          0                 4           2            55    7     1       0.6715962229E-03      54    4    1        -0.2842181300E-04      0.1562755836E-03
          0                 5           1            55    7     1      -0.4468323808E-04      54    4    1         0.2336541910E-05      0.1194953142E-04
          0                 6           1            55    7     1       0.2620409797E-05      54    4    1        -0.1530190459E-06      0.7564013529E-06
          0                 7           1            55    7     1      -0.1306308185E-06      54    4    1         0.8151981756E-08      0.3941316246E-07

    ------------------------------------------------
       NWT REQUIRED            7 OUTER ITERATIONS 
       AND A TOTAL OF         13 INNER ITERATIONS.
    ------------------------------------------------

 NO OUTPUT CONTROL FOR STRESS PERIOD    8   TIME STEP   28
 
 SOLVING FOR HEAD 
                                                   Max.-Head-Change                         Max.-Flux-Residual
  Residual-Control   Outer-Iter.   Inner-Iter.     Column Row Layer    Maximum-Head-Change  Column Row Layer    Maximum-Flux-Residual          L2-NORM 
          0                 1           3            55    5     1      -0.2172298857E+01      55    5    1        -0.3144314747E-01      0.1644253084E+00
          0                 2           3            55    5     1       0.2445970842E+00      55    5    1         0.1652764031E-01      0.2350696851E-01
          0                 3           2            50    1     1      -0.9576483904E-02      55    5    1         0.3680770385E-03      0.1786414833E-02
          0                 4           2            50    1     1       0.7061456057E-03      55    5    1        -0.2925952052E-04      0.1593999118E-03
          0                 5           1            50    1     1      -0.4674857757E-04      51    4    1         0.2328504645E-05      0.1210301758E-04
          0                 6           1            50    1     1       0.2728843483E-05      52    4    1        -0.1507965721E-06      0.7643227368E-06
          0                 7           1            50    1     1      -0.1352816538E-06      52    4    1         0.8134167562E-08      0.3985494989E-07

    ------------------------------------------------
       NWT REQUIRED            7 OUTER ITERATIONS 
       AND A TOTAL OF         13 INNER ITERATIONS.
    ------------------------------------------------

 NO OUTPUT CONTROL FOR STRESS PERIOD    8   TIME STEP   29
 
 WELLS WITH REDUCED PUMPING FOR STRESS PERIOD     8 TIME STEP    29
   LAY   ROW   COL         APPL.Q          ACT.Q        GW-HEAD       CELL-BOT
     1     5    55  -0.149000E+01  -0.148190E+01   0.106204E+02   0.000000E+00
 
 
 SOLVING FOR HEAD 
                                                   Max.-Head-Change                         Max.-Flux-Residual
  Residual-Control   Outer-Iter.   Inner-Iter.     Column Row Layer    Maximum-Head-Change  Column Row Layer    Maximum-Flux-Residual          L2-NORM 
          0                 1           3            50    3     1      -0.2356498299E+01      50    3    1        -0.3098769942E-01      0.1628540740E+00
          0                 2           3            50    3     1       0.7657506668E+00      50    3    1         0.1130788833E+00      0.1374349286E+00
          0                 3           2            50    3     1       0.3031478880E-01      50    3    1         0.3876197541E-02      0.4469510752E-02
          0                 4           2            50    3     1      -0.2381730181E-02      50    3    1        -0.3235885233E-03      0.3722787527E-03
          0                 5           2            50    3     1       0.1806423427E-03      50    3    1         0.2608508838E-04      0.2933651210E-04
          0                 6           1            50    3     1      -0.1201151899E-04      50    3    1        -0.1834075906E-05      0.2021416615E-05
          0                 7           1            50    3     1       0.6911286966E-06      50    3    1         0.1111186474E-06      0.1203153599E-06

    ------------------------------------------------
       NWT REQUIRED            7 OUTER ITERATIONS 
       AND A TOTAL OF         14 INNER ITERATIONS.
    ------------------------------------------------

 NO OUTPUT CONTROL FOR STRESS PERIOD    8   TIME STEP   30
 
 WELLS WITH REDUCED PUMPING FOR STRESS PERIOD     8 TIME STEP    30
   LAY   ROW   COL         APPL.Q          ACT.Q        GW-HEAD       CELL-BOT
     1     3    50  -0.149000E+01  -0.144830E+01   0.100802E+02   0.000000E+00
     1     5    55  -0.149000E+01  -0.140874E+01   0.952726E+01   0.000000E+00
 



 STREAM LISTING     PERIOD      8   STEP       30

 LAYER ROW COL. STREAM  RCH.   FLOW INTO    STREAM     FLOW OUT OF   OVRLND.    DIRECT     STREAM      STREAM      STREAM     STREAM  STREAMBED   FLOW TO   CHNG. UNSAT. 
                SEG.NO.  NO.   STRM. RCH.    LOSS       STRM. RCH.   RUNOFF     PRECIP       ET         HEAD        DEPTH      WIDTH  CONDCTNC.   WAT. TAB.

   1    4    1     1     1    3.3910E+01  8.5167E-03   3.3901E+01  0.000E+00  0.000E+00  0.000E+00  1.44048E+02  4.198E+00  8.792E+00  1.813E-03  8.619E-03 -1.026E-04
   1    4    2     1     2    3.3901E+01  8.5148E-03   3.3893E+01  0.000E+00  0.000E+00  0.000E+00  1.43748E+02  4.198E+00  8.790E+00  1.813E-03  8.617E-03 -1.019E-04
   1    4    3     1     3    3.3893E+01  8.5128E-03   3.3884E+01  0.000E+00  0.000E+00  0.000E+00  1.43447E+02  4.197E+00  8.789E+00  1.812E-03  8.613E-03 -1.006E-04
   1    4    4     1     4    3.3884E+01  8.5109E-03   3.3876E+01  0.000E+00  0.000E+00  0.000E+00  1.43147E+02  4.197E+00  8.787E+00  1.812E-03  8.610E-03 -9.865E-05
   1    4    5     1     5    3.3876E+01  8.5089E-03   3.3867E+01  0.000E+00  0.000E+00  0.000E+00  1.42846E+02  4.196E+00  8.786E+00  1.812E-03  8.605E-03 -9.601E-05
   1    4    6     1     6    3.3867E+01  8.5069E-03   3.3859E+01  0.000E+00  0.000E+00  0.000E+00  1.42546E+02  4.196E+00  8.784E+00  1.812E-03  8.600E-03 -9.271E-05
   1    4    7     1     7    3.3859E+01  8.5050E-03   3.3850E+01  0.000E+00  0.000E+00  0.000E+00  1.42246E+02  4.196E+00  8.782E+00  1.811E-03  8.594E-03 -8.877E-05
   1    4    8     1     8    3.3850E+01  8.5030E-03   3.3842E+01  0.000E+00  0.000E+00  0.000E+00  1.41945E+02  4.195E+00  8.781E+00  1.811E-03  8.587E-03 -8.418E-05
   1    4    9     1     9    3.3842E+01  8.5011E-03   3.3833E+01  0.000E+00  0.000E+00  0.000E+00  1.41645E+02  4.195E+00  8.779E+00  1.811E-03  8.580E-03 -7.897E-05
   1    4   10     1    10    3.3833E+01  8.4991E-03   3.3825E+01  0.000E+00  0.000E+00  0.000E+00  1.41344E+02  4.194E+00  8.777E+00  1.811E-03  8.572E-03 -7.314E-05
   1    4   11     1    11    3.3825E+01  8.4972E-03   3.3816E+01  0.000E+00  0.000E+00  0.000E+00  1.41044E+02  4.194E+00  8.776E+00  1.810E-03  8.564E-03 -6.671E-05
   1    4   12     1    12    3.3816E+01  8.4952E-03   3.3808E+01  0.000E+00  0.000E+00  0.000E+00  1.40743E+02  4.194E+00  8.774E+00  1.810E-03  8.555E-03 -5.971E-05
   1    4   13     1    13    3.3808E+01  8.4933E-03   3.3799E+01  0.000E+00  0.000E+00  0.000E+00  1.40443E+02  4.193E+00  8.772E+00  1.810E-03  8.545E-03 -5.212E-05
   1    4   14     1    14    3.3799E+01  8.4913E-03   3.3791E+01  0.000E+00  0.000E+00  0.000E+00  1.40143E+02  4.193E+00  8.771E+00  1.809E-03  8.535E-03 -4.398E-05
   1    4   15     1    15    3.3791E+01  8.4894E-03   3.3782E+01  0.000E+00  0.000E+00  0.000E+00  1.39842E+02  4.192E+00  8.769E+00  1.809E-03  8.525E-03 -3.528E-05
   1    4   16     1    16    3.3782E+01  8.4874E-03   3.3774E+01  0.000E+00  0.000E+00  0.000E+00  1.39542E+02  4.192E+00  8.767E+00  1.809E-03  8.513E-03 -2.603E-05
   1    4   17     1    17    3.3774E+01  8.4855E-03   3.3765E+01  0.000E+00  0.000E+00  0.000E+00  1.39241E+02  4.191E+00  8.766E+00  1.809E-03  8.502E-03 -1.624E-05
   1    4   18     1    18    3.3765E+01  8.4835E-03   3.3757E+01  0.000E+00  0.000E+00  0.000E+00  1.38941E+02  4.191E+00  8.764E+00  1.808E-03  8.489E-03 -5.902E-06
   1    4   19     1    19    3.3757E+01  8.4816E-03   3.3749E+01  0.000E+00  0.000E+00  0.000E+00  1.38641E+02  4.191E+00  8.762E+00  1.808E-03  8.477E-03  5.007E-06
   1    4   20     1    20    3.3749E+01  8.4796E-03   3.3740E+01  0.000E+00  0.000E+00  0.000E+00  1.38340E+02  4.190E+00  8.761E+00  1.808E-03  8.463E-03  1.650E-05
   1    4   21     1    21    3.3740E+01  8.4777E-03   3.3732E+01  0.000E+00  0.000E+00  0.000E+00  1.38040E+02  4.190E+00  8.759E+00  1.808E-03  8.449E-03  2.862E-05
   1    4   22     1    22    3.3732E+01  8.4757E-03   3.3723E+01  0.000E+00  0.000E+00  0.000E+00  1.37739E+02  4.189E+00  8.758E+00  1.807E-03  8.434E-03  4.140E-05
   1    4   23     1    23    3.3723E+01  8.4738E-03   3.3715E+01  0.000E+00  0.000E+00  0.000E+00  1.37439E+02  4.189E+00  8.756E+00  1.807E-03  8.419E-03  5.490E-05
   1    4   24     1    24    3.3715E+01  8.4718E-03   3.3706E+01  0.000E+00  0.000E+00  0.000E+00  1.37139E+02  4.189E+00  8.754E+00  1.807E-03  8.403E-03  6.923E-05
   1    4   25     1    25    3.3706E+01  8.4699E-03   3.3698E+01  0.000E+00  0.000E+00  0.000E+00  1.36838E+02  4.188E+00  8.753E+00  1.807E-03  8.385E-03  8.456E-05
   1    4   26     1    26    3.3698E+01  8.4679E-03   3.3689E+01  0.000E+00  0.000E+00  0.000E+00  1.36538E+02  4.188E+00  8.751E+00  1.806E-03  8.367E-03  1.010E-04
   1    4   27     1    27    3.3689E+01  8.4660E-03   3.3681E+01  0.000E+00  0.000E+00  0.000E+00  1.36237E+02  4.187E+00  8.749E+00  1.806E-03  8.347E-03  1.187E-04
   1    4   28     1    28    3.3681E+01  8.4640E-03   3.3672E+01  0.000E+00  0.000E+00  0.000E+00  1.35937E+02  4.187E+00  8.748E+00  1.806E-03  8.326E-03  1.377E-04
   1    4   29     1    29    3.3672E+01  8.4621E-03   3.3664E+01  0.000E+00  0.000E+00  0.000E+00  1.35637E+02  4.187E+00  8.746E+00  1.806E-03  8.304E-03  1.584E-04
   1    4   30     1    30    3.3664E+01  8.4601E-03   3.3655E+01  0.000E+00  0.000E+00  0.000E+00  1.35336E+02  4.186E+00  8.744E+00  1.805E-03  8.281E-03  1.794E-04
   1    4   31     1    31    3.3655E+01  8.4582E-03   3.3647E+01  0.000E+00  0.000E+00  0.000E+00  1.35036E+02  4.186E+00  8.743E+00  1.805E-03  8.287E-03  1.708E-04
   1    4   32     1    32    3.3647E+01  8.4562E-03   3.3638E+01  0.000E+00  0.000E+00  0.000E+00  1.34735E+02  4.185E+00  8.741E+00  1.805E-03  8.295E-03  1.610E-04
   1    4   33     1    33    3.3638E+01  8.4543E-03   3.3630E+01  0.000E+00  0.000E+00  0.000E+00  1.34435E+02  4.185E+00  8.739E+00  1.805E-03  8.304E-03  1.500E-04
   1    4   34     1    34    3.3630E+01  8.4523E-03   3.3622E+01  0.000E+00  0.000E+00  0.000E+00  1.34134E+02  4.184E+00  8.738E+00  1.804E-03  8.294E-03  1.584E-04
   1    4   35     1    35    3.3622E+01  8.4504E-03   3.3613E+01  0.000E+00  0.000E+00  0.000E+00  1.33834E+02  4.184E+00  8.736E+00  1.804E-03  8.254E-03  1.964E-04
   1    4   36     1    36    3.3613E+01  8.4484E-03   3.3605E+01  0.000E+00  0.000E+00  0.000E+00  1.33534E+02  4.184E+00  8.735E+00  1.804E-03  8.209E-03  2.392E-04
   1    4   37     1    37    3.3605E+01  8.4465E-03   3.3596E+01  0.000E+00  0.000E+00  0.000E+00  1.33233E+02  4.183E+00  8.733E+00  1.804E-03  8.159E-03  2.873E-04
   1    4   38     1    38    3.3596E+01  8.4445E-03   3.3588E+01  0.000E+00  0.000E+00  0.000E+00  1.32933E+02  4.183E+00  8.731E+00  1.803E-03  8.103E-03  3.411E-04
   1    4   39     1    39    3.3588E+01  8.4426E-03   3.3579E+01  0.000E+00  0.000E+00  0.000E+00  1.32632E+02  4.182E+00  8.730E+00  1.803E-03  8.109E-03  3.337E-04
   1    4   40     1    40    3.3579E+01  8.4407E-03   3.3571E+01  0.000E+00  0.000E+00  0.000E+00  1.32332E+02  4.182E+00  8.728E+00  1.803E-03  8.116E-03  3.244E-04
   1    4   41     1    41    3.3571E+01  8.4387E-03   3.3562E+01  0.000E+00  0.000E+00  0.000E+00  1.32032E+02  4.182E+00  8.726E+00  1.803E-03  8.047E-03  3.922E-04
   1    4   42     1    42    3.3562E+01  8.4368E-03   3.3554E+01  0.000E+00  0.000E+00  0.000E+00  1.31731E+02  4.181E+00  8.725E+00  1.802E-03  7.956E-03  4.803E-04
   1    4   43     1    43    3.3554E+01  8.4348E-03   3.3546E+01  0.000E+00  0.000E+00  0.000E+00  1.31431E+02  4.181E+00  8.723E+00  1.802E-03  7.917E-03  5.177E-04
   1    4   44     1    44    3.3546E+01  8.4329E-03   3.3537E+01  0.000E+00  0.000E+00  0.000E+00  1.31130E+02  4.180E+00  8.721E+00  1.802E-03  7.905E-03  5.276E-04
   1    4   45     1    45    3.3537E+01  8.4309E-03   3.3529E+01  0.000E+00  0.000E+00  0.000E+00  1.30830E+02  4.180E+00  8.720E+00  1.802E-03  7.770E-03  6.606E-04
   1    4   46     1    46    3.3529E+01  8.4290E-03   3.3520E+01  0.000E+00  0.000E+00  0.000E+00  1.30530E+02  4.180E+00  8.718E+00  1.801E-03  7.726E-03  7.028E-04
   1    4   47     1    47    3.3520E+01  8.4271E-03   3.3512E+01  0.000E+00  0.000E+00  0.000E+00  1.30229E+02  4.179E+00  8.716E+00  1.801E-03  6.985E-03  1.442E-03
   1    4   48     1    48    3.3512E+01  8.4251E-03   3.3503E+01  0.000E+00  0.000E+00  0.000E+00  1.29929E+02  4.179E+00  8.715E+00  1.801E-03  6.797E-03  1.628E-03
   1    4   49     1    49    3.3503E+01  8.4232E-03   3.3495E+01  0.000E+00  0.000E+00  0.000E+00  1.29628E+02  4.178E+00  8.713E+00  1.800E-03  6.536E-03  1.887E-03
   1    4   50     1    50    3.3495E+01  8.4212E-03   3.3487E+01  0.000E+00  0.000E+00  0.000E+00  1.29328E+02  4.178E+00  8.712E+00  1.800E-03  6.149E-03  2.272E-03
   1    4   51     1    51    3.3487E+01  8.4193E-03   3.3478E+01  0.000E+00  0.000E+00  0.000E+00  1.29027E+02  4.177E+00  8.710E+00  1.800E-03  6.151E-03  2.269E-03
   1    4   52     1    52    3.3478E+01  8.4174E-03   3.3470E+01  0.000E+00  0.000E+00  0.000E+00  1.28727E+02  4.177E+00  8.708E+00  1.800E-03  6.182E-03  2.235E-03
   1    4   53     1    53    3.3470E+01  8.4154E-03   3.3461E+01  0.000E+00  0.000E+00  0.000E+00  1.28427E+02  4.177E+00  8.707E+00  1.799E-03  6.198E-03  2.217E-03
   1    4   54     1    54    3.3461E+01  8.4135E-03   3.3453E+01  0.000E+00  0.000E+00  0.000E+00  1.28126E+02  4.176E+00  8.705E+00  1.799E-03  6.236E-03  2.178E-03
   1    4   55     1    55    3.3453E+01  8.4115E-03   3.3444E+01  0.000E+00  0.000E+00  0.000E+00  1.27826E+02  4.176E+00  8.703E+00  1.799E-03  6.463E-03  1.948E-03
   1    4   56     1    56    3.3444E+01  8.4096E-03   3.3436E+01  0.000E+00  0.000E+00  0.000E+00  1.27525E+02  4.175E+00  8.702E+00  1.799E-03  6.606E-03  1.804E-03
   1    4   57     1    57    3.3436E+01  8.4077E-03   3.3428E+01  0.000E+00  0.000E+00  0.000E+00  1.27225E+02  4.175E+00  8.700E+00  1.798E-03  6.785E-03  1.623E-03
   1    4   58     1    58    3.3428E+01  8.4057E-03   3.3419E+01  0.000E+00  0.000E+00  0.000E+00  1.26925E+02  4.175E+00  8.698E+00  1.798E-03  6.942E-03  1.463E-03
   1    4   59     1    59    3.3419E+01  8.4038E-03   3.3411E+01  0.000E+00  0.000E+00  0.000E+00  1.26624E+02  4.174E+00  8.697E+00  1.798E-03  7.591E-03  8.133E-04
   1    4   60     1    60    3.3411E+01  8.4018E-03   3.3402E+01  0.000E+00  0.000E+00  0.000E+00  1.26324E+02  4.174E+00  8.695E+00  1.798E-03  7.665E-03  7.365E-04
   1    4   61     1    61    3.3402E+01  8.3999E-03   3.3394E+01  0.000E+00  0.000E+00  0.000E+00  1.26023E+02  4.173E+00  8.694E+00  1.797E-03  7.735E-03  6.651E-04
   1    4   62     1    62    3.3394E+01  8.3980E-03   3.3386E+01  0.000E+00  0.000E+00  0.000E+00  1.25723E+02  4.173E+00  8.692E+00  1.797E-03  7.729E-03  6.689E-04
   1    4   63     1    63    3.3386E+01  8.3960E-03   3.3377E+01  0.000E+00  0.000E+00  0.000E+00  1.25423E+02  4.173E+00  8.690E+00  1.797E-03  7.820E-03  5.760E-04
   1    4   64     1    64    3.3377E+01  8.3941E-03   3.3369E+01  0.000E+00  0.000E+00  0.000E+00  1.25122E+02  4.172E+00  8.689E+00  1.797E-03  7.890E-03  5.040E-04
   1    4   65     1    65    3.3369E+01  8.3922E-03   3.3360E+01  0.000E+00  0.000E+00  0.000E+00  1.24822E+02  4.172E+00  8.687E+00  1.796E-03  7.862E-03  5.301E-04
   1    4   66     1    66    3.3360E+01  8.3902E-03   3.3352E+01  0.000E+00  0.000E+00  0.000E+00  1.24521E+02  4.171E+00  8.685E+00  1.796E-03  7.879E-03  5.115E-04
   1    4   67     1    67    3.3352E+01  8.3883E-03   3.3344E+01  0.000E+00  0.000E+00  0.000E+00  1.24221E+02  4.171E+00  8.684E+00  1.796E-03  7.931E-03  4.575E-04
   1    4   68     1    68    3.3344E+01  8.3864E-03   3.3335E+01  0.000E+00  0.000E+00  0.000E+00  1.23921E+02  4.171E+00  8.682E+00  1.796E-03  7.976E-03  4.105E-04
   1    4   69     1    69    3.3335E+01  8.3844E-03   3.3327E+01  0.000E+00  0.000E+00  0.000E+00  1.23620E+02  4.170E+00  8.680E+00  1.795E-03  8.015E-03  3.696E-04
   1    4   70     1    70    3.3327E+01  8.3825E-03   3.3319E+01  0.000E+00  0.000E+00  0.000E+00  1.23320E+02  4.170E+00  8.679E+00  1.795E-03  7.996E-03  3.865E-04
   1    4   71     1    71    3.3319E+01  8.3806E-03   3.3310E+01  0.000E+00  0.000E+00  0.000E+00  1.23019E+02  4.169E+00  8.677E+00  1.795E-03  7.971E-03  4.100E-04
   1    4   72     1    72    3.3310E+01  8.3786E-03   3.3302E+01  0.000E+00  0.000E+00  0.000E+00  1.22719E+02  4.169E+00  8.675E+00  1.795E-03  7.979E-03  3.999E-04
   1    4   73     1    73    3.3302E+01  8.3767E-03   3.3293E+01  0.000E+00  0.000E+00  0.000E+00  1.22418E+02  4.168E+00  8.674E+00  1.794E-03  8.002E-03  3.752E-04
   1    4   74     1    74    3.3293E+01  8.3748E-03   3.3285E+01  0.000E+00  0.000E+00  0.000E+00  1.22118E+02  4.168E+00  8.672E+00  1.794E-03  8.022E-03  3.531E-04
   1    4   75     1    75    3.3285E+01  8.3728E-03   3.3277E+01  0.000E+00  0.000E+00  0.000E+00  1.21818E+02  4.168E+00  8.671E+00  1.794E-03  8.039E-03  3.336E-04
   1    4   76     1    76    3.3277E+01  8.3709E-03   3.3268E+01  0.000E+00  0.000E+00  0.000E+00  1.21517E+02  4.167E+00  8.669E+00  1.794E-03  8.055E-03  3.160E-04
   1    4   77     1    77    3.3268E+01  8.3690E-03   3.3260E+01  0.000E+00  0.000E+00  0.000E+00  1.21217E+02  4.167E+00  8.667E+00  1.793E-03  8.069E-03  2.999E-04
   1    4   78     1    78    3.3260E+01  8.3670E-03   3.3252E+01  0.000E+00  0.000E+00  0.000E+00  1.20916E+02  4.166E+00  8.666E+00  1.793E-03  8.082E-03  2.852E-04
   1    4   79     1    79    3.3252E+01  8.3651E-03   3.3243E+01  0.000E+00  0.000E+00  0.000E+00  1.20616E+02  4.166E+00  8.664E+00  1.793E-03  8.094E-03  2.714E-04
   1    4   80     1    80    3.3243E+01  8.3632E-03   3.3235E+01  0.000E+00  0.000E+00  0.000E+00  1.20316E+02  4.166E+00  8.662E+00  1.793E-03  8.105E-03  2.585E-04
   1    4   81     1    81    3.3235E+01  8.3612E-03   3.3226E+01  0.000E+00  0.000E+00  0.000E+00  1.20015E+02  4.165E+00  8.661E+00  1.792E-03  8.115E-03  2.462E-04
   1    4   82     1    82    3.3226E+01  8.3593E-03   3.3218E+01  0.000E+00  0.000E+00  0.000E+00  1.19715E+02  4.165E+00  8.659E+00  1.792E-03  8.125E-03  2.343E-04
   1    4   83     1    83    3.3218E+01  8.3574E-03   3.3210E+01  0.000E+00  0.000E+00  0.000E+00  1.19414E+02  4.164E+00  8.657E+00  1.792E-03  8.135E-03  2.229E-04
   1    4   84     1    84    3.3210E+01  8.3555E-03   3.3201E+01  0.000E+00  0.000E+00  0.000E+00  1.19114E+02  4.164E+00  8.656E+00  1.791E-03  8.144E-03  2.116E-04
   1    4   85     1    85    3.3201E+01  8.3535E-03   3.3193E+01  0.000E+00  0.000E+00  0.000E+00  1.18814E+02  4.164E+00  8.654E+00  1.791E-03  8.153E-03  2.005E-04
   1    4   86     1    86    3.3193E+01  8.3516E-03   3.3185E+01  0.000E+00  0.000E+00  0.000E+00  1.18513E+02  4.163E+00  8.653E+00  1.791E-03  8.162E-03  1.895E-04
   1    4   87     1    87    3.3185E+01  8.3497E-03   3.3176E+01  0.000E+00  0.000E+00  0.000E+00  1.18213E+02  4.163E+00  8.651E+00  1.791E-03  8.171E-03  1.785E-04
   1    4   88     1    88    3.3176E+01  8.3477E-03   3.3168E+01  0.000E+00  0.000E+00  0.000E+00  1.17912E+02  4.162E+00  8.649E+00  1.790E-03  8.180E-03  1.675E-04
   1    4   89     1    89    3.3168E+01  8.3458E-03   3.3160E+01  0.000E+00  0.000E+00  0.000E+00  1.17612E+02  4.162E+00  8.648E+00  1.790E-03  8.189E-03  1.564E-04
   1    4   90     1    90    3.3160E+01  8.3439E-03   3.3151E+01  0.000E+00  0.000E+00  0.000E+00  1.17312E+02  4.161E+00  8.646E+00  1.790E-03  8.199E-03  1.452E-04
   1    4   91     1    91    3.3151E+01  8.3420E-03   3.3143E+01  0.000E+00  0.000E+00  0.000E+00  1.17011E+02  4.161E+00  8.644E+00  1.790E-03  8.208E-03  1.338E-04
   1    4   92     1    92    3.3143E+01  8.3400E-03   3.3135E+01  0.000E+00  0.000E+00  0.000E+00  1.16711E+02  4.161E+00  8.643E+00  1.789E-03  8.218E-03  1.223E-04
   1    4   93     1    93    3.3135E+01  8.3381E-03   3.3126E+01  0.000E+00  0.000E+00  0.000E+00  1.16410E+02  4.160E+00  8.641E+00  1.789E-03  8.228E-03  1.104E-04
   1    4   94     1    94    3.3126E+01  8.3362E-03   3.3118E+01  0.000E+00  0.000E+00  0.000E+00  1.16110E+02  4.160E+00  8.639E+00  1.789E-03  8.244E-03  9.200E-05
   1    4   95     1    95    3.3118E+01  8.3343E-03   3.3110E+01  0.000E+00  0.000E+00  0.000E+00  1.15809E+02  4.159E+00  8.638E+00  1.789E-03  8.301E-03  3.350E-05
   1    4   96     1    96    3.3110E+01  8.3323E-03   3.3101E+01  0.000E+00  0.000E+00  0.000E+00  1.15509E+02  4.159E+00  8.636E+00  1.788E-03  8.362E-03 -2.962E-05
   1    4   97     1    97    3.3101E+01  8.3304E-03   3.3093E+01  0.000E+00  0.000E+00  0.000E+00  1.15209E+02  4.159E+00  8.635E+00  1.788E-03  8.403E-03 -7.248E-05
   1    4   98     1    98    3.3093E+01  8.3285E-03   3.3085E+01  0.000E+00  0.000E+00  0.000E+00  1.14908E+02  4.158E+00  8.633E+00  1.788E-03  8.418E-03 -8.902E-05
   1    4   99     1    99    3.3085E+01  8.3266E-03   3.3076E+01  0.000E+00  0.000E+00  0.000E+00  1.14608E+02  4.158E+00  8.631E+00  1.788E-03  8.433E-03 -1.067E-04
   1    4  100     1   100    3.3076E+01  8.3246E-03   3.3068E+01  0.000E+00  0.000E+00  0.000E+00  1.14307E+02  4.157E+00  8.630E+00  1.787E-03  8.450E-03 -1.258E-04



1
  VOLUMETRIC BUDGET FOR UNSATURATED ZONE BENEATH STREAMS AT END OF TIME STEP    30 STRESS PERIOD   8
  ------------------------------------------------------------------------------------------------

    CUMULATIVE VOLUMES             L**3    RATES FOR THIS TIME STEP         L**3/T
    ------------------                     ------------------------


          STREAM LOSS =     10492016.0000            STREAM LOSS =            0.8420
    CHANGE IN STORAGE =      1984875.2500      CHANGE IN STORAGE =        4.0334E-02
       RECHARGE TO GW =      8510054.0000         RECHARGE TO GW =            0.8017

             TOTAL IN =     10492016.0000               TOTAL IN =            0.8420

            TOTAL OUT =     10494929.0000              TOTAL OUT =            0.8420

             IN - OUT =        -2913.0000               IN - OUT =        2.9802E-07

  PERCENT DISCREPANCY =           -0.01      PERCENT DISCREPANCY =             0.00



1
  VOLUMETRIC BUDGET FOR ENTIRE MODEL AT END OF TIME STEP   30, STRESS PERIOD   8
  ------------------------------------------------------------------------------

     CUMULATIVE VOLUMES      L**3       RATES FOR THIS TIME STEP      L**3/T
     ------------------                 ------------------------

           IN:                                      IN:
           ---                                      ---
             STORAGE     =    48824332.0000               STORAGE     =           2.4230
       CONSTANT HEAD     =           0.0000         CONSTANT HEAD     =           0.0000
               WELLS     =           0.0000                 WELLS     =           0.0000
     HEAD DEP BOUNDS     =           0.0000       HEAD DEP BOUNDS     =           0.0000
      STREAM LEAKAGE     =     8510053.0000        STREAM LEAKAGE     =           0.8017

                TOTAL IN =    57334384.0000                  TOTAL IN =           3.2247

          OUT:                                     OUT:
          ----                                     ----
             STORAGE     =     1283814.5000               STORAGE     =       5.9578E-02
       CONSTANT HEAD     =           0.0000         CONSTANT HEAD     =           0.0000
               WELLS     =    45379264.0000                 WELLS     =           2.8570
     HEAD DEP BOUNDS     =    10671309.0000       HEAD DEP BOUNDS     =           0.3081
      STREAM LEAKAGE     =           0.0000        STREAM LEAKAGE     =           0.0000

               TOTAL OUT =    57334388.0000                 TOTAL OUT =           3.2247

                IN - OUT =          -4.0000                  IN - OUT =           0.0000

     PERCENT DISCREPANCY =          -0.00         PERCENT DISCREPANCY =           0.00






         TIME SUMMARY AT END OF TIME STEP   30 IN STRESS PERIOD    8
                    SECONDS     MINUTES      HOURS       DAYS        YEARS
                    -----------------------------------------------------------
   TIME STEP LENGTH 2.49961E+05  4166.0      69.434      2.8931     7.92080E-03
 STRESS PERIOD TIME 2.59200E+06  43200.      720.00      30.000     8.21355E-02
         TOTAL TIME 2.07360E+07 3.45600E+05  5760.0      240.00     0.65708    
1
1
                            STRESS PERIOD NO.    9, LENGTH =   2592000.    
                            -----------------------------------------------

                              NUMBER OF TIME STEPS =    30

                               MULTIPLIER FOR DELT =     1.100

                            INITIAL TIME STEP SIZE =   15757.40    

 REUSING NON-PARAMETER WELLS FROM LAST STRESS PERIOD

      1 WELL 

 REUSING NON-PARAMETER GHB CELLS FROM LAST STRESS PERIOD

      7 GHB CELLS



 CLASSIFICATION & COUNT OF STREAM SEGMENTS BASED ON SOURCE OF INFLOW:

                HEADWATER     DIVERSION     RECEIVES TRIBUTARY FLOW
                ---------     ---------     -----------------------
                     1              0               0



                    INPUT DATA FOR EACH STREAM SEGMENT
 ---------------------------------------------------------------------------------------------

 SEGMENT    SEG.     INFLOW   OVERLAND   STREAM    STREAM   ICALC  OUTFLOW  DIVERSION PRIORITY
    NO.    LENGTH     RATE     RUNOFF      ET       PPT.    METH.  TO SEG.  FROM SEG.    NO.

      1  2.000E+04 1.628E+01 0.000E+00 0.000E+00 0.000E+00    2        0        0        0


         STREAMBED PROPERTIES AND STREAM DIMENSIONS

 SEGMENT     BED HYD. COND.      BED THICKNESS     ELEV.-TOP OF BED     WIDTH OF STREAM     DEPTH OF STREAM    STREAM ROUGHNESS
    No.     UPPER     LOWER     UPPER     LOWER     UPPER     LOWER     UPPER     LOWER     UPPER     LOWER   CHANNEL      BANK

     1  3.500E-07 3.500E-07                                                                                 3.000E-02 4.000E-02

  EIGHT POINT CROSS-SECTION DATA FOR SEGMENTS WITH ICALC = 2
    X VALUES X VALUES START FROM LEFT SIDE LOOKING DOWNSTREAM

     SEGMENT NO.        X1        X2        X3        X4        X5        X6        X7        X8
            1      0.000E+00 2.000E+00 4.000E+00 6.000E+00 8.000E+00 1.000E+01 1.200E+01 1.400E+01

    Z VALUES ARE RELATIVE TO STREAMBED ELEVATION

     SEGMENT NO.          Z1        Z2        Z3        Z4        Z5        Z6        Z7        Z8
            1      6.000E+00 4.500E+00 3.500E+00 0.000E+00 3.000E-01 3.500E+00 4.500E+00 6.000E+00



 
 SOLVING FOR HEAD 
                                                   Max.-Head-Change                         Max.-Flux-Residual
  Residual-Control   Outer-Iter.   Inner-Iter.     Column Row Layer    Maximum-Head-Change  Column Row Layer    Maximum-Flux-Residual          L2-NORM 
          0                 1           2            50    3     1       0.7047867640E+00      50    3    1         0.2495820765E+00      0.3818627326E+00
          0                 2           2            55    5     1      -0.4117132966E-01      55    5    1        -0.1488825880E-01      0.2484976382E-01
          0                 3           2            55    5     1       0.3852777440E-02      55    5    1         0.1385921052E-02      0.2273157181E-02
          0                 4           2            55    5     1      -0.3042081441E-03      55    5    1        -0.1106980047E-03      0.1819292033E-03
          0                 5           1            55    5     1       0.2120564834E-04      55    5    1         0.7793467865E-05      0.1281458825E-04
          0                 6           1            55    5     1      -0.1273220562E-05      55    5    1        -0.4729018124E-06      0.7783281679E-06
          0                 7           1            55    5     1       0.6433538360E-07      55    5    1         0.2416017053E-07      0.3982194212E-07

    ------------------------------------------------
       NWT REQUIRED            7 OUTER ITERATIONS 
       AND A TOTAL OF         11 INNER ITERATIONS.
    ------------------------------------------------

 NO OUTPUT CONTROL FOR STRESS PERIOD    9   TIME STEP    1
 
 WELLS WITH REDUCED PUMPING FOR STRESS PERIOD     9 TIME STEP     1
   LAY   ROW   COL         APPL.Q          ACT.Q        GW-HEAD       CELL-BOT
     1     3    50  -0.121008E+01  -0.120440E+01   0.107510E+02   0.000000E+00
     1     5    55  -0.121008E+01  -0.118558E+01   0.101613E+02   0.000000E+00
 
 
 SOLVING FOR HEAD 
                                                   Max.-Head-Change                         Max.-Flux-Residual
  Residual-Control   Outer-Iter.   Inner-Iter.     Column Row Layer    Maximum-Head-Change  Column Row Layer    Maximum-Flux-Residual          L2-NORM 
          0                 1           2            50    3     1       0.5232063603E+00      50    3    1         0.1532657531E+00      0.2526675628E+00
          0                 2           2            55    5     1      -0.2919588174E-01      55    5    1        -0.9206439465E-02      0.1874007218E-01
          0                 3           2            55    5     1       0.2719992992E-02      55    5    1         0.8531453807E-03      0.1696717231E-02
          0                 4           2            55    5     1      -0.2149829989E-03      55    5    1        -0.6812017806E-04      0.1358143246E-03
          0                 5           1            55    5     1       0.1498380664E-04      55    5    1         0.4790369369E-05      0.9548536450E-05
          0                 6           1            55    5     1      -0.8996820351E-06      55    5    1        -0.2902676144E-06      0.5785952651E-06

    ------------------------------------------------
       NWT REQUIRED            6 OUTER ITERATIONS 
       AND A TOTAL OF         10 INNER ITERATIONS.
    ------------------------------------------------

 NO OUTPUT CONTROL FOR STRESS PERIOD    9   TIME STEP    2
 
 WELLS WITH REDUCED PUMPING FOR STRESS PERIOD     9 TIME STEP     2
   LAY   ROW   COL         APPL.Q          ACT.Q        GW-HEAD       CELL-BOT
     1     5    55  -0.121006E+01  -0.120279E+01   0.105954E+02   0.000000E+00
 
 
 SOLVING FOR HEAD 
                                                   Max.-Head-Change                         Max.-Flux-Residual
  Residual-Control   Outer-Iter.   Inner-Iter.     Column Row Layer    Maximum-Head-Change  Column Row Layer    Maximum-Flux-Residual          L2-NORM 
          0                 1           2            50    3     1       0.4232652533E+00      50    3    1         0.1036159266E+00      0.1930423192E+00
          0                 2           2            50    3     1      -0.3976598277E-01      50    3    1        -0.1047211979E-01      0.1826135875E-01
          0                 3           2            50    3     1       0.3534812897E-02      50    3    1         0.9421145670E-03      0.1657755168E-02
          0                 4           2            50    3     1      -0.2805703613E-03      50    3    1        -0.7546603091E-04      0.1328090437E-03
          0                 5           1            50    3     1       0.1954486873E-04      50    3    1         0.5305172153E-05      0.9336792263E-05
          0                 6           1            50    3     1      -0.1173612701E-05      50    3    1        -0.3214707667E-06      0.5657679915E-06
          0                 7           1            50    3     1       0.5930059647E-07      50    3    1         0.1639170621E-07      0.2884846158E-07

    ------------------------------------------------
       NWT REQUIRED            7 OUTER ITERATIONS 
       AND A TOTAL OF         11 INNER ITERATIONS.
    ------------------------------------------------

 NO OUTPUT CONTROL FOR STRESS PERIOD    9   TIME STEP    3
 
 WELLS WITH REDUCED PUMPING FOR STRESS PERIOD     9 TIME STEP     3
   LAY   ROW   COL         APPL.Q          ACT.Q        GW-HEAD       CELL-BOT
     1     5    55  -0.120997E+01  -0.120893E+01   0.109106E+02   0.000000E+00
 
 
 SOLVING FOR HEAD 
                                                   Max.-Head-Change                         Max.-Flux-Residual
  Residual-Control   Outer-Iter.   Inner-Iter.     Column Row Layer    Maximum-Head-Change  Column Row Layer    Maximum-Flux-Residual          L2-NORM 
          0                 1           2            50    3     1       0.3260524425E+00      50    3    1         0.7294769083E-01      0.1619154303E+00
          0                 2           2            50    3     1      -0.3027636121E-01      50    3    1        -0.7370242141E-02      0.1579647347E-01
          0                 3           2            50    3     1       0.2678892965E-02      50    3    1         0.6630125380E-03      0.1437470499E-02
          0                 4           2            50    3     1      -0.2125869833E-03      50    3    1        -0.5310929317E-04      0.1152737434E-03
          0                 5           1            50    3     1       0.1480924470E-04      50    3    1         0.3733525141E-05      0.8104186750E-05
          0                 6           1            50    3     1      -0.8892450071E-06      50    3    1        -0.2262343715E-06      0.4910772574E-06

    ------------------------------------------------
       NWT REQUIRED            6 OUTER ITERATIONS 
       AND A TOTAL OF         10 INNER ITERATIONS.
    ------------------------------------------------

 NO OUTPUT CONTROL FOR STRESS PERIOD    9   TIME STEP    4
 
 SOLVING FOR HEAD 
                                                   Max.-Head-Change                         Max.-Flux-Residual
  Residual-Control   Outer-Iter.   Inner-Iter.     Column Row Layer    Maximum-Head-Change  Column Row Layer    Maximum-Flux-Residual          L2-NORM 
          0                 1           2            50    3     1       0.2479999145E+00      50    3    1         0.5126917440E-01      0.1436666910E+00
          0                 2           2            50    3     1      -0.2291284938E-01      50    3    1        -0.5171984724E-02      0.1452994869E-01
          0                 3           2            50    3     1       0.2016548284E-02      50    3    1         0.4652689548E-03      0.1330767056E-02
          0                 4           2            50    3     1      -0.1598987576E-03      50    3    1        -0.3726928155E-04      0.1068501728E-03
          0                 5           1            50    3     1       0.1113927418E-04      50    3    1         0.2620001030E-05      0.7512929356E-05
          0                 6           1            50    3     1      -0.6688632591E-06      50    3    1        -0.1587582970E-06      0.4552486522E-06

    ------------------------------------------------
       NWT REQUIRED            6 OUTER ITERATIONS 
       AND A TOTAL OF         10 INNER ITERATIONS.
    ------------------------------------------------

 NO OUTPUT CONTROL FOR STRESS PERIOD    9   TIME STEP    5
 
 SOLVING FOR HEAD 
                                                   Max.-Head-Change                         Max.-Flux-Residual
  Residual-Control   Outer-Iter.   Inner-Iter.     Column Row Layer    Maximum-Head-Change  Column Row Layer    Maximum-Flux-Residual          L2-NORM 
          0                 1           2            50    3     1       0.1822481315E+00      50    3    1         0.3536763663E-01      0.1319709715E+00
          0                 2           2            50    3     1      -0.1690103613E-01      50    3    1        -0.3559296975E-02      0.1337839141E-01
          0                 3           2            50    3     1       0.1479620492E-02      50    3    1         0.3202189647E-03      0.1234512783E-02
          0                 4           2            50    3     1      -0.1171369010E-03      50    3    1        -0.2565017223E-04      0.9931285016E-04
          0                 5           1            50    3     1       0.8159981078E-05      50    3    1         0.1803178562E-05      0.6985008043E-05
          0                 6           1            50    3     1      -0.4899582193E-06      50    3    1        -0.1092614166E-06      0.4232623626E-06

    ------------------------------------------------
       NWT REQUIRED            6 OUTER ITERATIONS 
       AND A TOTAL OF         10 INNER ITERATIONS.
    ------------------------------------------------

 NO OUTPUT CONTROL FOR STRESS PERIOD    9   TIME STEP    6
 
 SOLVING FOR HEAD 
                                                   Max.-Head-Change                         Max.-Flux-Residual
  Residual-Control   Outer-Iter.   Inner-Iter.     Column Row Layer    Maximum-Head-Change  Column Row Layer    Maximum-Flux-Residual          L2-NORM 
          0                 1           2            52    7     1      -0.1356125240E+00      50    3    1         0.2364174436E-01      0.1243183283E+00
          0                 2           2            52    7     1       0.1324671711E-01      50    3    1        -0.2371797102E-02      0.1263615187E-01
          0                 3           2            52    7     1      -0.1179679106E-02      50    3    1         0.2134134705E-03      0.1175249893E-02
          0                 4           1            52    7     1       0.9363065027E-04      50    3    1        -0.1709463943E-04      0.9479781566E-04
          0                 5           1            52    7     1      -0.6522294077E-05      50    3    1         0.1201665237E-05      0.6670828519E-05
          0                 6           1            52    7     1       0.3916330142E-06      50    3    1        -0.7281171333E-07      0.4042385873E-06

    ------------------------------------------------
       NWT REQUIRED            6 OUTER ITERATIONS 
       AND A TOTAL OF          9 INNER ITERATIONS.
    ------------------------------------------------

 NO OUTPUT CONTROL FOR STRESS PERIOD    9   TIME STEP    7
 
 SOLVING FOR HEAD 
                                                   Max.-Head-Change                         Max.-Flux-Residual
  Residual-Control   Outer-Iter.   Inner-Iter.     Column Row Layer    Maximum-Head-Change  Column Row Layer    Maximum-Flux-Residual          L2-NORM 
          0                 1           2            53    1     1      -0.1451480206E+00      52    7    1        -0.1592154756E-01      0.1192484815E+00
          0                 2           2            53    1     1       0.1414568371E-01      52    7    1         0.1590263970E-02      0.1215022233E-01
          0                 3           2            53    1     1      -0.1258816838E-02      52    7    1        -0.1431546596E-03      0.1139164835E-02
          0                 4           1            53    1     1       0.9990166986E-04      52    7    1         0.1146643086E-04      0.9219627144E-04
          0                 5           1            53    1     1      -0.6959256396E-05      52    7    1        -0.8060325498E-06      0.6493012982E-05
          0                 6           1            53    1     1       0.4178765275E-06      52    7    1         0.4883911470E-07      0.3935035116E-06

    ------------------------------------------------
       NWT REQUIRED            6 OUTER ITERATIONS 
       AND A TOTAL OF          9 INNER ITERATIONS.
    ------------------------------------------------

 NO OUTPUT CONTROL FOR STRESS PERIOD    9   TIME STEP    8
 
 SOLVING FOR HEAD 
                                                   Max.-Head-Change                         Max.-Flux-Residual
  Residual-Control   Outer-Iter.   Inner-Iter.     Column Row Layer    Maximum-Head-Change  Column Row Layer    Maximum-Flux-Residual          L2-NORM 
          0                 1           2            53    1     1      -0.1548124462E+00      53    1    1        -0.1549526583E-01      0.1158017261E+00
          0                 2           2            53    1     1       0.1504913668E-01      53    1    1         0.1547282765E-02      0.1182278755E-01
          0                 3           2            53    1     1      -0.1337949956E-02      53    1    1        -0.1392921827E-03      0.1117565290E-02
          0                 4           1            53    1     1       0.1061617839E-03      53    1    1         0.1115699348E-04      0.9081107190E-04
          0                 5           1            53    1     1      -0.7395259941E-05      53    1    1        -0.7843277987E-06      0.6402624819E-05
          0                 6           1            53    1     1       0.4440525624E-06      53    1    1         0.4752715443E-07      0.3881000584E-06

    ------------------------------------------------
       NWT REQUIRED            6 OUTER ITERATIONS 
       AND A TOTAL OF          9 INNER ITERATIONS.
    ------------------------------------------------

 NO OUTPUT CONTROL FOR STRESS PERIOD    9   TIME STEP    9
 
 SOLVING FOR HEAD 
                                                   Max.-Head-Change                         Max.-Flux-Residual
  Residual-Control   Outer-Iter.   Inner-Iter.     Column Row Layer    Maximum-Head-Change  Column Row Layer    Maximum-Flux-Residual          L2-NORM 
          0                 1           2            53    1     1      -0.1645287496E+00      53    1    1        -0.1502817143E-01      0.1134554296E+00
          0                 2           2            53    1     1       0.1594822708E-01      53    1    1         0.1500220178E-02      0.1159960132E-01
          0                 3           2            53    1     1      -0.1416237867E-02      53    1    1        -0.1350625510E-03      0.1105374313E-02
          0                 4           2            53    1     1       0.1123416201E-03      53    1    1         0.1081814398E-04      0.9024319602E-04
          0                 5           1            53    1     1      -0.7825756664E-05      53    1    1        -0.7605073715E-06      0.6373153624E-05
          0                 6           1            53    1     1       0.4698971233E-06      53    1    1         0.4608373039E-07      0.3864585971E-06

    ------------------------------------------------
       NWT REQUIRED            6 OUTER ITERATIONS 
       AND A TOTAL OF         10 INNER ITERATIONS.
    ------------------------------------------------

 NO OUTPUT CONTROL FOR STRESS PERIOD    9   TIME STEP   10
 
 SOLVING FOR HEAD 
                                                   Max.-Head-Change                         Max.-Flux-Residual
  Residual-Control   Outer-Iter.   Inner-Iter.     Column Row Layer    Maximum-Head-Change  Column Row Layer    Maximum-Flux-Residual          L2-NORM 
          0                 1           2            53    1     1      -0.1743833062E+00      53    1    1        -0.1452331664E-01      0.1118266882E+00
          0                 2           2            53    1     1       0.1685039859E-01      53    1    1         0.1449448335E-02      0.1144505632E-01
          0                 3           2            53    1     1      -0.1494244747E-02      53    1    1        -0.1304987182E-03      0.1099335195E-02
          0                 4           2            53    1     1       0.1184807355E-03      53    1    1         0.1045252623E-04      0.9020898433E-04
          0                 5           1            53    1     1      -0.8252974095E-05      53    1    1        -0.7348051594E-06      0.6383193982E-05
          0                 6           1            53    1     1       0.4955416571E-06      53    1    1         0.4452627600E-07      0.3872352768E-06

    ------------------------------------------------
       NWT REQUIRED            6 OUTER ITERATIONS 
       AND A TOTAL OF         10 INNER ITERATIONS.
    ------------------------------------------------

 NO OUTPUT CONTROL FOR STRESS PERIOD    9   TIME STEP   11
 
 SOLVING FOR HEAD 
                                                   Max.-Head-Change                         Max.-Flux-Residual
  Residual-Control   Outer-Iter.   Inner-Iter.     Column Row Layer    Maximum-Head-Change  Column Row Layer    Maximum-Flux-Residual          L2-NORM 
          0                 1           2            53    1     1      -0.1845197071E+00      53    1    1        -0.1399793913E-01      0.1106952346E+00
          0                 2           2            53    1     1       0.1776854101E-01      53    1    1         0.1396704366E-02      0.1133541778E-01
          0                 3           2            53    1     1      -0.1573005445E-02      53    1    1        -0.1257569355E-03      0.1097224897E-02
          0                 4           2            53    1     1       0.1246554275E-03      53    1    1         0.1007265644E-04      0.9054408368E-04
          0                 5           1            53    1     1      -0.8682218929E-05      53    1    1        -0.7081010376E-06      0.6422906847E-05
          0                 6           1            53    1     1       0.5213019521E-06      53    1    1         0.4290811018E-07      0.3899216043E-06

    ------------------------------------------------
       NWT REQUIRED            6 OUTER ITERATIONS 
       AND A TOTAL OF         10 INNER ITERATIONS.
    ------------------------------------------------

 NO OUTPUT CONTROL FOR STRESS PERIOD    9   TIME STEP   12
 
 SOLVING FOR HEAD 
                                                   Max.-Head-Change                         Max.-Flux-Residual
  Residual-Control   Outer-Iter.   Inner-Iter.     Column Row Layer    Maximum-Head-Change  Column Row Layer    Maximum-Flux-Residual          L2-NORM 
          0                 1           2            53    1     1      -0.1951332606E+00      53    1    1        -0.1346940537E-01      0.1099978877E+00
          0                 2           2            53    1     1       0.1872043532E-01      53    1    1         0.1343730745E-02      0.1125240229E-01
          0                 3           2            53    1     1      -0.1653973348E-02      53    1    1        -0.1209940261E-03      0.1097270239E-02
          0                 4           2            53    1     1       0.1309738396E-03      59    4    1        -0.1027948033E-04      0.9111481377E-04
          0                 5           1            53    1     1      -0.9120774397E-05      59    4    1         0.7378290974E-06      0.6483701179E-05
          0                 6           1            53    1     1       0.5476105318E-06      59    4    1        -0.4474259718E-07      0.3940321741E-06

    ------------------------------------------------
       NWT REQUIRED            6 OUTER ITERATIONS 
       AND A TOTAL OF         10 INNER ITERATIONS.
    ------------------------------------------------

 NO OUTPUT CONTROL FOR STRESS PERIOD    9   TIME STEP   13
 
 SOLVING FOR HEAD 
                                                   Max.-Head-Change                         Max.-Flux-Residual
  Residual-Control   Outer-Iter.   Inner-Iter.     Column Row Layer    Maximum-Head-Change  Column Row Layer    Maximum-Flux-Residual          L2-NORM 
          0                 1           2            53    1     1      -0.2064633068E+00      53    1    1        -0.1295371194E-01      0.1097775442E+00
          0                 2           2            53    1     1       0.1972863048E-01      53    1    1         0.1292127256E-02      0.1123074576E-01
          0                 3           2            53    1     1      -0.1738915384E-02      58    4    1         0.1169340502E-03      0.1102355961E-02
          0                 4           2            53    1     1       0.1375695892E-03      59    4    1        -0.1053559806E-04      0.9209198723E-04
          0                 5           1            53    1     1      -0.9577610883E-05      59    4    1         0.7654046064E-06      0.6574863172E-05
          0                 6           1            53    1     1       0.5749988263E-06      59    4    1        -0.4658816533E-07      0.4000847224E-06

    ------------------------------------------------
       NWT REQUIRED            6 OUTER ITERATIONS 
       AND A TOTAL OF         10 INNER ITERATIONS.
    ------------------------------------------------

 NO OUTPUT CONTROL FOR STRESS PERIOD    9   TIME STEP   14
 
 WELLS WITH REDUCED PUMPING FOR STRESS PERIOD     9 TIME STEP    14
   LAY   ROW   COL         APPL.Q          ACT.Q        GW-HEAD       CELL-BOT
     1     5    55  -0.120998E+01  -0.120985E+01   0.110342E+02   0.000000E+00
 
 
 SOLVING FOR HEAD 
                                                   Max.-Head-Change                         Max.-Flux-Residual
  Residual-Control   Outer-Iter.   Inner-Iter.     Column Row Layer    Maximum-Head-Change  Column Row Layer    Maximum-Flux-Residual          L2-NORM 
          0                 1           2            55    5     1      -0.2308917061E+00      53    1    1        -0.1246439969E-01      0.1097757663E+00
          0                 2           2            55    5     1       0.2681903182E-01      55    5    1         0.2680268809E-02      0.1146128127E-01
          0                 3           2            55    5     1      -0.2017987149E-02      55    5    1        -0.2218930408E-03      0.1127201122E-02
          0                 4           2            55    5     1       0.1552134654E-03      55    5    1         0.1788474995E-04      0.9476405037E-04
          0                 5           1            55    5     1      -0.1070870920E-04      55    5    1        -0.1256619900E-05      0.6791940041E-05
          0                 6           1            55    5     1       0.6424374023E-06      55    5    1         0.7614934971E-07      0.4139936575E-06

    ------------------------------------------------
       NWT REQUIRED            6 OUTER ITERATIONS 
       AND A TOTAL OF         10 INNER ITERATIONS.
    ------------------------------------------------

 NO OUTPUT CONTROL FOR STRESS PERIOD    9   TIME STEP   15
 
 WELLS WITH REDUCED PUMPING FOR STRESS PERIOD     9 TIME STEP    15
   LAY   ROW   COL         APPL.Q          ACT.Q        GW-HEAD       CELL-BOT
     1     5    55  -0.120999E+01  -0.120785E+01   0.108283E+02   0.000000E+00
 
 
 SOLVING FOR HEAD 
                                                   Max.-Head-Change                         Max.-Flux-Residual
  Residual-Control   Outer-Iter.   Inner-Iter.     Column Row Layer    Maximum-Head-Change  Column Row Layer    Maximum-Flux-Residual          L2-NORM 
          0                 1           2            50    3     1      -0.2516724287E+00      55    5    1        -0.1239373003E-01      0.1098091391E+00
          0                 2           2            55    5     1       0.2805985853E-01      55    5    1         0.2805293881E-02      0.1146795883E-01
          0                 3           2            55    5     1      -0.2108926178E-02      55    5    1        -0.2322193646E-03      0.1133479770E-02
          0                 4           2            55    5     1       0.1611214562E-03      55    5    1         0.1871702309E-04      0.9594802229E-04
          0                 5           1            55    5     1      -0.1107569688E-04      55    5    1        -0.1315105729E-05      0.6908628766E-05
          0                 6           1            55    5     1       0.6636933675E-06      55    5    1         0.7969344518E-07      0.4220160334E-06

    ------------------------------------------------
       NWT REQUIRED            6 OUTER ITERATIONS 
       AND A TOTAL OF         10 INNER ITERATIONS.
    ------------------------------------------------

 NO OUTPUT CONTROL FOR STRESS PERIOD    9   TIME STEP   16
 
 WELLS WITH REDUCED PUMPING FOR STRESS PERIOD     9 TIME STEP    16
   LAY   ROW   COL         APPL.Q          ACT.Q        GW-HEAD       CELL-BOT
     1     5    55  -0.120999E+01  -0.120319E+01   0.106124E+02   0.000000E+00
 
 
 SOLVING FOR HEAD 
                                                   Max.-Head-Change                         Max.-Flux-Residual
  Residual-Control   Outer-Iter.   Inner-Iter.     Column Row Layer    Maximum-Head-Change  Column Row Layer    Maximum-Flux-Residual          L2-NORM 
          0                 1           2            50    3     1      -0.2982423656E+00      50    3    1        -0.1283514226E-01      0.1095699869E+00
          0                 2           2            55    5     1       0.2742870288E-01      55    5    1         0.2684421642E-02      0.1140688326E-01
          0                 3           2            55    5     1      -0.2061472824E-02      55    5    1        -0.2230811846E-03      0.1134444934E-02
          0                 4           2            53    1     1       0.1604121232E-03      55    5    1         0.1797513740E-04      0.9674371099E-04
          0                 5           1            53    1     1      -0.1114969468E-04      55    5    1        -0.1263019035E-05      0.7003641552E-05
          0                 6           1            53    1     1       0.6690266195E-06      55    5    1         0.7653685685E-07      0.4290213639E-06

    ------------------------------------------------
       NWT REQUIRED            6 OUTER ITERATIONS 
       AND A TOTAL OF         10 INNER ITERATIONS.
    ------------------------------------------------

 NO OUTPUT CONTROL FOR STRESS PERIOD    9   TIME STEP   17
 
 WELLS WITH REDUCED PUMPING FOR STRESS PERIOD     9 TIME STEP    17
   LAY   ROW   COL         APPL.Q          ACT.Q        GW-HEAD       CELL-BOT
     1     5    55  -0.120999E+01  -0.119601E+01   0.103963E+02   0.000000E+00
 
 
 SOLVING FOR HEAD 
                                                   Max.-Head-Change                         Max.-Flux-Residual
  Residual-Control   Outer-Iter.   Inner-Iter.     Column Row Layer    Maximum-Head-Change  Column Row Layer    Maximum-Flux-Residual          L2-NORM 
          0                 1           2            50    3     1      -0.3487377918E+00      50    3    1        -0.1385242421E-01      0.1093381361E+00
          0                 2           2            50    3     1       0.2814914307E-01      55    5    1         0.2460189037E-02      0.1138349305E-01
          0                 3           2            53    1     1      -0.2154552086E-02      55    5    1        -0.2054294098E-03      0.1135608081E-02
          0                 4           2            53    1     1       0.1693276777E-03      55    5    1         0.1654661792E-04      0.9755747503E-04
          0                 5           1            53    1     1      -0.1175841081E-04      55    5    1        -0.1162688381E-05      0.7103959114E-05
          0                 6           1            53    1     1       0.7053022453E-06      55    5    1         0.7045675821E-07      0.4366029527E-06

    ------------------------------------------------
       NWT REQUIRED            6 OUTER ITERATIONS 
       AND A TOTAL OF         10 INNER ITERATIONS.
    ------------------------------------------------

 NO OUTPUT CONTROL FOR STRESS PERIOD    9   TIME STEP   18
 
 WELLS WITH REDUCED PUMPING FOR STRESS PERIOD     9 TIME STEP    18
   LAY   ROW   COL         APPL.Q          ACT.Q        GW-HEAD       CELL-BOT
     1     3    50  -0.121001E+01  -0.120971E+01   0.110980E+02   0.000000E+00
     1     5    55  -0.121001E+01  -0.118667E+01   0.101845E+02   0.000000E+00
 
 
 SOLVING FOR HEAD 
                                                   Max.-Head-Change                         Max.-Flux-Residual
  Residual-Control   Outer-Iter.   Inner-Iter.     Column Row Layer    Maximum-Head-Change  Column Row Layer    Maximum-Flux-Residual          L2-NORM 
          0                 1           3            50    3     1      -0.3799684054E+00      50    3    1        -0.1456551826E-01      0.1090548780E+00
          0                 2           2            50    3     1       0.5703145017E-01      50    3    1         0.5325542837E-02      0.1235264418E-01
          0                 3           2            50    3     1      -0.3939647805E-02      50    3    1        -0.3965519348E-03      0.1197605930E-02
          0                 4           2            50    3     1       0.2988718580E-03      50    3    1         0.3216523337E-04      0.1032535489E-03
          0                 5           1            50    3     1      -0.2029837303E-04      50    3    1        -0.2258859763E-05      0.7545847243E-05
          0                 6           1            50    3     1       0.1207819645E-05      50    3    1         0.1367204949E-06      0.4649247812E-06
          0                 7           1            50    3     1      -0.6084519342E-07      50    3    1        -0.6963623900E-08      0.2384311589E-07

    ------------------------------------------------
       NWT REQUIRED            7 OUTER ITERATIONS 
       AND A TOTAL OF         12 INNER ITERATIONS.
    ------------------------------------------------

 NO OUTPUT CONTROL FOR STRESS PERIOD    9   TIME STEP   19
 
 WELLS WITH REDUCED PUMPING FOR STRESS PERIOD     9 TIME STEP    19
   LAY   ROW   COL         APPL.Q          ACT.Q        GW-HEAD       CELL-BOT
     1     3    50  -0.121000E+01  -0.120482E+01   0.107714E+02   0.000000E+00
     1     5    55  -0.121000E+01  -0.117547E+01   0.997901E+01   0.000000E+00
 
 
 SOLVING FOR HEAD 
                                                   Max.-Head-Change                         Max.-Flux-Residual
  Residual-Control   Outer-Iter.   Inner-Iter.     Column Row Layer    Maximum-Head-Change  Column Row Layer    Maximum-Flux-Residual          L2-NORM 
          0                 1           3            50    3     1      -0.3472275723E+00      50    3    1        -0.1340782388E-01      0.1082394325E+00
          0                 2           2            50    3     1       0.4731489472E-01      50    3    1         0.4398700439E-02      0.1186670722E-01
          0                 3           2            50    3     1      -0.3393538040E-02      50    3    1        -0.3423509154E-03      0.1170908794E-02
          0                 4           2            50    3     1       0.2546408554E-03      50    3    1         0.2770207078E-04      0.1017684147E-03
          0                 5           1            50    3     1      -0.1719703178E-04      50    3    1        -0.1945840435E-05      0.7491285560E-05
          0                 6           1            50    3     1       0.1020030875E-05      50    3    1         0.1177505315E-06      0.4635882519E-06
          0                 7           1            50    3     1      -0.5132347350E-07      50    3    1        -0.5997362384E-08      0.2382933078E-07

    ------------------------------------------------
       NWT REQUIRED            7 OUTER ITERATIONS 
       AND A TOTAL OF         12 INNER ITERATIONS.
    ------------------------------------------------

 NO OUTPUT CONTROL FOR STRESS PERIOD    9   TIME STEP   20
 
 WELLS WITH REDUCED PUMPING FOR STRESS PERIOD     9 TIME STEP    20
   LAY   ROW   COL         APPL.Q          ACT.Q        GW-HEAD       CELL-BOT
     1     3    50  -0.120999E+01  -0.119517E+01   0.104684E+02   0.000000E+00
     1     5    55  -0.120999E+01  -0.116270E+01   0.977971E+01   0.000000E+00
 
 
 SOLVING FOR HEAD 
                                                   Max.-Head-Change                         Max.-Flux-Residual
  Residual-Control   Outer-Iter.   Inner-Iter.     Column Row Layer    Maximum-Head-Change  Column Row Layer    Maximum-Flux-Residual          L2-NORM 
          0                 1           3            52    1     1      -0.3226099966E+00      50    3    1        -0.1133271941E-01      0.1069866595E+00
          0                 2           2            50    3     1       0.3897949691E-01      50    3    1         0.3483092419E-02      0.1140592597E-01
          0                 3           2            50    3     1      -0.2850705795E-02      50    3    1        -0.2791618630E-03      0.1140188797E-02
          0                 4           2            50    3     1       0.2114714139E-03      50    3    1         0.2254724335E-04      0.9993282526E-04
          0                 5           1            50    3     1      -0.1418774048E-04      50    3    1        -0.1584012593E-05      0.7414267517E-05
          0                 6           1            50    3     1       0.8386386377E-06      50    3    1         0.9585200700E-07      0.4611334196E-06

    ------------------------------------------------
       NWT REQUIRED            6 OUTER ITERATIONS 
       AND A TOTAL OF         11 INNER ITERATIONS.
    ------------------------------------------------

 NO OUTPUT CONTROL FOR STRESS PERIOD    9   TIME STEP   21
 
 WELLS WITH REDUCED PUMPING FOR STRESS PERIOD     9 TIME STEP    21
   LAY   ROW   COL         APPL.Q          ACT.Q        GW-HEAD       CELL-BOT
     1     3    50  -0.121000E+01  -0.118240E+01   0.101927E+02   0.000000E+00
     1     5    55  -0.121000E+01  -0.114859E+01   0.958573E+01   0.000000E+00
 
 
 SOLVING FOR HEAD 
                                                   Max.-Head-Change                         Max.-Flux-Residual
  Residual-Control   Outer-Iter.   Inner-Iter.     Column Row Layer    Maximum-Head-Change  Column Row Layer    Maximum-Flux-Residual          L2-NORM 
          0                 1           3            52    1     1      -0.3433968400E+00      52    1    1        -0.1001622356E-01      0.1054504964E+00
          0                 2           2            50    3     1       0.3303749603E-01      50    3    1         0.2787632595E-02      0.1104052586E-01
          0                 3           2            52    1     1      -0.2726578515E-02      50    3    1        -0.2274848177E-03      0.1113567285E-02
          0                 4           2            52    1     1       0.2119676957E-03      50    3    1         0.1835055697E-04      0.9839321702E-04
          0                 5           1            52    1     1      -0.1462851983E-04      50    3    1        -0.1289322662E-05      0.7356704831E-05
          0                 6           1            52    1     1       0.8742246912E-06      50    3    1         0.7804277957E-07      0.4598447403E-06

    ------------------------------------------------
       NWT REQUIRED            6 OUTER ITERATIONS 
       AND A TOTAL OF         11 INNER ITERATIONS.
    ------------------------------------------------

 NO OUTPUT CONTROL FOR STRESS PERIOD    9   TIME STEP   22
 
 WELLS WITH REDUCED PUMPING FOR STRESS PERIOD     9 TIME STEP    22
   LAY   ROW   COL         APPL.Q          ACT.Q        GW-HEAD       CELL-BOT
     1     3    50  -0.120999E+01  -0.116753E+01   0.994049E+01   0.000000E+00
     1     5    55  -0.120999E+01  -0.113324E+01   0.939642E+01   0.000000E+00
 
 
 SOLVING FOR HEAD 
                                                   Max.-Head-Change                         Max.-Flux-Residual
  Residual-Control   Outer-Iter.   Inner-Iter.     Column Row Layer    Maximum-Head-Change  Column Row Layer    Maximum-Flux-Residual          L2-NORM 
          0                 1           3            52    1     1      -0.3629420155E+00      52    1    1        -0.9696892810E-02      0.1037180487E+00
          0                 2           2            52    1     1       0.3347459401E-01      50    3    1         0.2302866345E-02      0.1073731577E-01
          0                 3           2            52    1     1      -0.2856830761E-02      50    3    1        -0.1900223848E-03      0.1089041417E-02
          0                 4           2            52    1     1       0.2213582232E-03      50    3    1         0.1531611326E-04      0.9694109688E-04
          0                 5           1            52    1     1      -0.1524243179E-04      50    3    1        -0.1076197818E-05      0.7303471447E-05
          0                 6           1            52    1     1       0.9093250563E-06      50    3    1         0.6519544149E-07      0.4588424128E-06

    ------------------------------------------------
       NWT REQUIRED            6 OUTER ITERATIONS 
       AND A TOTAL OF         11 INNER ITERATIONS.
    ------------------------------------------------

 NO OUTPUT CONTROL FOR STRESS PERIOD    9   TIME STEP   23
 
 WELLS WITH REDUCED PUMPING FOR STRESS PERIOD     9 TIME STEP    23
   LAY   ROW   COL         APPL.Q          ACT.Q        GW-HEAD       CELL-BOT
     1     3    50  -0.121000E+01  -0.115115E+01   0.970586E+01   0.000000E+00
     1     5    55  -0.121000E+01  -0.111677E+01   0.921067E+01   0.000000E+00
 
 
 SOLVING FOR HEAD 
                                                   Max.-Head-Change                         Max.-Flux-Residual
  Residual-Control   Outer-Iter.   Inner-Iter.     Column Row Layer    Maximum-Head-Change  Column Row Layer    Maximum-Flux-Residual          L2-NORM 
          0                 1           3            52    1     1      -0.3808712256E+00      52    1    1        -0.9321253236E-02      0.1018205441E+00
          0                 2           2            52    1     1       0.3495532831E-01      50    3    1         0.1958787386E-02      0.1046000996E-01
          0                 3           2            52    1     1      -0.2971707313E-02      50    3    1        -0.1627391081E-03      0.1064865115E-02
          0                 4           2            52    1     1       0.2294373367E-03      50    3    1         0.1311019487E-04      0.9542058353E-04
          0                 5           1            52    1     1      -0.1575859662E-04      59    4    1         0.9757199235E-06      0.7241101572E-05
          0                 6           1            52    1     1       0.9381936087E-06      60    4    1        -0.6382395767E-07      0.4571366285E-06

    ------------------------------------------------
       NWT REQUIRED            6 OUTER ITERATIONS 
       AND A TOTAL OF         11 INNER ITERATIONS.
    ------------------------------------------------

 NO OUTPUT CONTROL FOR STRESS PERIOD    9   TIME STEP   24
 
 WELLS WITH REDUCED PUMPING FOR STRESS PERIOD     9 TIME STEP    24
   LAY   ROW   COL         APPL.Q          ACT.Q        GW-HEAD       CELL-BOT
     1     3    50  -0.120999E+01  -0.113350E+01   0.948415E+01   0.000000E+00
     1     5    55  -0.120999E+01  -0.109920E+01   0.902745E+01   0.000000E+00
 
 
 SOLVING FOR HEAD 
                                                   Max.-Head-Change                         Max.-Flux-Residual
  Residual-Control   Outer-Iter.   Inner-Iter.     Column Row Layer    Maximum-Head-Change  Column Row Layer    Maximum-Flux-Residual          L2-NORM 
          0                 1           3            52    1     1      -0.3981654485E+00      52    1    1        -0.8896281063E-02      0.9982798713E-01
          0                 2           2            52    1     1       0.3643852904E-01      50    3    1         0.1723773397E-02      0.1019314205E-01
          0                 3           2            52    1     1      -0.3085181399E-02      50    3    1        -0.1437483515E-03      0.1039486256E-02
          0                 4           2            52    1     1       0.2370460444E-03      58    4    1        -0.1194648875E-04      0.9373072512E-04
          0                 5           1            52    1     1      -0.1621439191E-04      59    4    1         0.9769884164E-06      0.7165490639E-05
          0                 6           1            52    1     1       0.9621004383E-06      60    4    1        -0.6444517275E-07      0.4546040197E-06

    ------------------------------------------------
       NWT REQUIRED            6 OUTER ITERATIONS 
       AND A TOTAL OF         11 INNER ITERATIONS.
    ------------------------------------------------

 NO OUTPUT CONTROL FOR STRESS PERIOD    9   TIME STEP   25
 
 WELLS WITH REDUCED PUMPING FOR STRESS PERIOD     9 TIME STEP    25
   LAY   ROW   COL         APPL.Q          ACT.Q        GW-HEAD       CELL-BOT
     1     3    50  -0.121000E+01  -0.111467E+01   0.927085E+01   0.000000E+00
     1     5    55  -0.121000E+01  -0.108047E+01   0.884495E+01   0.000000E+00
 
 
 SOLVING FOR HEAD 
                                                   Max.-Head-Change                         Max.-Flux-Residual
  Residual-Control   Outer-Iter.   Inner-Iter.     Column Row Layer    Maximum-Head-Change  Column Row Layer    Maximum-Flux-Residual          L2-NORM 
          0                 1           3            52    7     1      -0.4169958017E+00      52    1    1        -0.8456732784E-02      0.9782057502E-01
          0                 2           2            52    1     1       0.3802072350E-01      50    3    1         0.1573324007E-02      0.9937862430E-02
          0                 3           2            52    1     1      -0.3204546466E-02      50    3    1        -0.1313906660E-03      0.1014564392E-02
          0                 4           2            52    1     1       0.2448819076E-03      59    4    1        -0.1164536462E-04      0.9201611851E-04
          0                 5           1            52    1     1      -0.1666898467E-04      61    4    1         0.9736325719E-06      0.7083445236E-05
          0                 6           1            52    1     1       0.9853370611E-06      60    4    1        -0.6495210236E-07      0.4514493270E-06

    ------------------------------------------------
       NWT REQUIRED            6 OUTER ITERATIONS 
       AND A TOTAL OF         11 INNER ITERATIONS.
    ------------------------------------------------

 NO OUTPUT CONTROL FOR STRESS PERIOD    9   TIME STEP   26
 
 WELLS WITH REDUCED PUMPING FOR STRESS PERIOD     9 TIME STEP    26
   LAY   ROW   COL         APPL.Q          ACT.Q        GW-HEAD       CELL-BOT
     1     3    50  -0.120999E+01  -0.109448E+01   0.906129E+01   0.000000E+00
     1     5    55  -0.120999E+01  -0.106036E+01   0.866061E+01   0.000000E+00
 
 
 SOLVING FOR HEAD 
                                                   Max.-Head-Change                         Max.-Flux-Residual
  Residual-Control   Outer-Iter.   Inner-Iter.     Column Row Layer    Maximum-Head-Change  Column Row Layer    Maximum-Flux-Residual          L2-NORM 
          0                 1           3            52    7     1      -0.4355113338E+00      52    5    1        -0.8149243858E-02      0.9554947617E-01
          0                 2           3            52    7     1       0.3957652221E-01      50    3    1         0.1437122566E-02      0.9697145742E-02
          0                 3           2            52    7     1      -0.3321769365E-02      50    3    1        -0.1202483316E-03      0.9922620498E-03
          0                 4           2            52    1     1       0.2525851476E-03      59    4    1        -0.1144844330E-04      0.9040712983E-04
          0                 5           1            52    1     1      -0.1712818612E-04      60    4    1         0.9641597991E-06      0.6998092623E-05
          0                 6           1            53    1     1       0.1009803004E-05      60    4    1        -0.6489537263E-07      0.4473969475E-06
          0                 7           1            53    1     1      -0.5082387932E-07      60    4    1         0.3532637294E-08      0.2356128406E-07

    ------------------------------------------------
       NWT REQUIRED            7 OUTER ITERATIONS 
       AND A TOTAL OF         13 INNER ITERATIONS.
    ------------------------------------------------

 NO OUTPUT CONTROL FOR STRESS PERIOD    9   TIME STEP   27
 
 WELLS WITH REDUCED PUMPING FOR STRESS PERIOD     9 TIME STEP    27
   LAY   ROW   COL         APPL.Q          ACT.Q        GW-HEAD       CELL-BOT
     1     3    50  -0.121000E+01  -0.107324E+01   0.885650E+01   0.000000E+00
     1     5    55  -0.121000E+01  -0.103920E+01   0.847676E+01   0.000000E+00
 
 
 SOLVING FOR HEAD 
                                                   Max.-Head-Change                         Max.-Flux-Residual
  Residual-Control   Outer-Iter.   Inner-Iter.     Column Row Layer    Maximum-Head-Change  Column Row Layer    Maximum-Flux-Residual          L2-NORM 
          0                 1           3            52    7     1      -0.4501357524E+00      52    5    1        -0.7723863021E-02      0.9295875874E-01
          0                 2           3            52    7     1       0.4082154683E-01      50    3    1         0.1285247535E-02      0.9427931176E-02
          0                 3           2            52    7     1      -0.3418858469E-02      50    3    1        -0.1078268112E-03      0.9667678944E-03
          0                 4           2            52    7     1       0.2590971025E-03      60    4    1        -0.1113134403E-04      0.8845541579E-04
          0                 5           1            52    7     1      -0.1749733967E-04      60    4    1         0.9518600699E-06      0.6883691180E-05
          0                 6           1            53    1     1       0.1030921968E-05      60    4    1        -0.6456352430E-07      0.4413017678E-06
          0                 7           1            53    1     1      -0.5190530198E-07      60    4    1         0.3543062732E-08      0.2331943927E-07

    ------------------------------------------------
       NWT REQUIRED            7 OUTER ITERATIONS 
       AND A TOTAL OF         13 INNER ITERATIONS.
    ------------------------------------------------

 NO OUTPUT CONTROL FOR STRESS PERIOD    9   TIME STEP   28
 
 WELLS WITH REDUCED PUMPING FOR STRESS PERIOD     9 TIME STEP    28
   LAY   ROW   COL         APPL.Q          ACT.Q        GW-HEAD       CELL-BOT
     1     3    50  -0.121000E+01  -0.105141E+01   0.865895E+01   0.000000E+00
     1     5    55  -0.121000E+01  -0.101741E+01   0.829635E+01   0.000000E+00
 
 
 SOLVING FOR HEAD 
                                                   Max.-Head-Change                         Max.-Flux-Residual
  Residual-Control   Outer-Iter.   Inner-Iter.     Column Row Layer    Maximum-Head-Change  Column Row Layer    Maximum-Flux-Residual          L2-NORM 
          0                 1           3            52    7     1      -0.4614333500E+00      52    5    1        -0.7204527219E-02      0.9023399507E-01
          0                 2           3            52    7     1       0.4170529030E-01      50    3    1         0.1150466116E-02      0.9129165566E-02
          0                 3           2            52    7     1      -0.3481137209E-02      50    3    1        -0.9666714537E-04      0.9381957833E-03
          0                 4           2            52    7     1       0.2627689447E-03      59    4    1        -0.1079924779E-04      0.8623984740E-04
          0                 5           1            52    7     1      -0.1767751892E-04      60    4    1         0.9297956840E-06      0.6747664427E-05
          0                 6           1            53    1     1       0.1040478236E-05      60    4    1        -0.6357542759E-07      0.4334019528E-06
          0                 7           1            53    1     1      -0.5242409404E-07      60    4    1         0.3520751690E-08      0.2296994698E-07

    ------------------------------------------------
       NWT REQUIRED            7 OUTER ITERATIONS 
       AND A TOTAL OF         13 INNER ITERATIONS.
    ------------------------------------------------

 NO OUTPUT CONTROL FOR STRESS PERIOD    9   TIME STEP   29
 
 WELLS WITH REDUCED PUMPING FOR STRESS PERIOD     9 TIME STEP    29
   LAY   ROW   COL         APPL.Q          ACT.Q        GW-HEAD       CELL-BOT
     1     3    50  -0.121000E+01  -0.102915E+01   0.846809E+01   0.000000E+00
     1     5    55  -0.121000E+01  -0.995081E+00   0.811911E+01   0.000000E+00
 
 
 SOLVING FOR HEAD 
                                                   Max.-Head-Change                         Max.-Flux-Residual
  Residual-Control   Outer-Iter.   Inner-Iter.     Column Row Layer    Maximum-Head-Change  Column Row Layer    Maximum-Flux-Residual          L2-NORM 
          0                 1           3            52    7     1      -0.4688175323E+00      52    5    1        -0.6701592782E-02      0.8742263710E-01
          0                 2           3            52    7     1       0.4231026490E-01      50    3    1         0.1035425429E-02      0.8828703150E-02
          0                 3           2            53    1     1      -0.3525100243E-02      59    4    1         0.9217538096E-04      0.9084800718E-03
          0                 4           2            53    1     1       0.2652304083E-03      59    4    1        -0.1062822204E-04      0.8383649823E-04
          0                 5           1            53    1     1      -0.1778062232E-04      59    4    1         0.9129876171E-06      0.6593343810E-05
          0                 6           1            53    1     1       0.1044583376E-05      62    4    1        -0.6202658120E-07      0.4240144642E-06
          0                 7           1            53    1     1      -0.5269484746E-07      62    4    1         0.3462318432E-08      0.2253991197E-07

    ------------------------------------------------
       NWT REQUIRED            7 OUTER ITERATIONS 
       AND A TOTAL OF         13 INNER ITERATIONS.
    ------------------------------------------------

 NO OUTPUT CONTROL FOR STRESS PERIOD    9   TIME STEP   30
 
 WELLS WITH REDUCED PUMPING FOR STRESS PERIOD     9 TIME STEP    30
   LAY   ROW   COL         APPL.Q          ACT.Q        GW-HEAD       CELL-BOT
     1     3    50  -0.121000E+01  -0.100654E+01   0.828315E+01   0.000000E+00
     1     5    55  -0.121000E+01  -0.972319E+00   0.794508E+01   0.000000E+00
 



 STREAM LISTING     PERIOD      9   STEP       30

 LAYER ROW COL. STREAM  RCH.   FLOW INTO    STREAM     FLOW OUT OF   OVRLND.    DIRECT     STREAM      STREAM      STREAM     STREAM  STREAMBED   FLOW TO   CHNG. UNSAT. 
                SEG.NO.  NO.   STRM. RCH.    LOSS       STRM. RCH.   RUNOFF     PRECIP       ET         HEAD        DEPTH      WIDTH  CONDCTNC.   WAT. TAB.

   1    4    1     1     1    1.6280E+01  4.4112E-03   1.6276E+01  0.000E+00  0.000E+00  0.000E+00  1.42920E+02  3.070E+00  5.486E+00  1.236E-03  4.724E-03 -3.126E-04
   1    4    2     1     2    1.6276E+01  4.4102E-03   1.6271E+01  0.000E+00  0.000E+00  0.000E+00  1.42620E+02  3.070E+00  5.485E+00  1.235E-03  4.719E-03 -3.085E-04
   1    4    3     1     3    1.6271E+01  4.4092E-03   1.6267E+01  0.000E+00  0.000E+00  0.000E+00  1.42319E+02  3.069E+00  5.485E+00  1.235E-03  4.713E-03 -3.042E-04
   1    4    4     1     4    1.6267E+01  4.4082E-03   1.6262E+01  0.000E+00  0.000E+00  0.000E+00  1.42019E+02  3.069E+00  5.484E+00  1.235E-03  4.708E-03 -2.996E-04
   1    4    5     1     5    1.6262E+01  4.4072E-03   1.6258E+01  0.000E+00  0.000E+00  0.000E+00  1.41719E+02  3.069E+00  5.484E+00  1.235E-03  4.702E-03 -2.946E-04
   1    4    6     1     6    1.6258E+01  4.4062E-03   1.6254E+01  0.000E+00  0.000E+00  0.000E+00  1.41418E+02  3.068E+00  5.483E+00  1.235E-03  4.696E-03 -2.894E-04
   1    4    7     1     7    1.6254E+01  4.4053E-03   1.6249E+01  0.000E+00  0.000E+00  0.000E+00  1.41118E+02  3.068E+00  5.483E+00  1.235E-03  4.689E-03 -2.840E-04
   1    4    8     1     8    1.6249E+01  4.4043E-03   1.6245E+01  0.000E+00  0.000E+00  0.000E+00  1.40817E+02  3.067E+00  5.482E+00  1.235E-03  4.683E-03 -2.782E-04
   1    4    9     1     9    1.6245E+01  4.4033E-03   1.6240E+01  0.000E+00  0.000E+00  0.000E+00  1.40517E+02  3.067E+00  5.482E+00  1.234E-03  4.676E-03 -2.723E-04
   1    4   10     1    10    1.6240E+01  4.4023E-03   1.6236E+01  0.000E+00  0.000E+00  0.000E+00  1.40217E+02  3.067E+00  5.481E+00  1.234E-03  4.668E-03 -2.661E-04
   1    4   11     1    11    1.6236E+01  4.4013E-03   1.6232E+01  0.000E+00  0.000E+00  0.000E+00  1.39916E+02  3.066E+00  5.481E+00  1.234E-03  4.661E-03 -2.597E-04
   1    4   12     1    12    1.6232E+01  4.4003E-03   1.6227E+01  0.000E+00  0.000E+00  0.000E+00  1.39616E+02  3.066E+00  5.480E+00  1.234E-03  4.653E-03 -2.531E-04
   1    4   13     1    13    1.6227E+01  4.3994E-03   1.6223E+01  0.000E+00  0.000E+00  0.000E+00  1.39315E+02  3.065E+00  5.480E+00  1.234E-03  4.646E-03 -2.463E-04
   1    4   14     1    14    1.6223E+01  4.3984E-03   1.6218E+01  0.000E+00  0.000E+00  0.000E+00  1.39015E+02  3.065E+00  5.479E+00  1.234E-03  4.638E-03 -2.393E-04
   1    4   15     1    15    1.6218E+01  4.3974E-03   1.6214E+01  0.000E+00  0.000E+00  0.000E+00  1.38714E+02  3.064E+00  5.479E+00  1.234E-03  4.629E-03 -2.321E-04
   1    4   16     1    16    1.6214E+01  4.3964E-03   1.6210E+01  0.000E+00  0.000E+00  0.000E+00  1.38414E+02  3.064E+00  5.478E+00  1.234E-03  4.621E-03 -2.248E-04
   1    4   17     1    17    1.6210E+01  4.3954E-03   1.6205E+01  0.000E+00  0.000E+00  0.000E+00  1.38114E+02  3.064E+00  5.478E+00  1.233E-03  4.613E-03 -2.173E-04
   1    4   18     1    18    1.6205E+01  4.3944E-03   1.6201E+01  0.000E+00  0.000E+00  0.000E+00  1.37813E+02  3.063E+00  5.477E+00  1.233E-03  4.604E-03 -2.098E-04
   1    4   19     1    19    1.6201E+01  4.3935E-03   1.6196E+01  0.000E+00  0.000E+00  0.000E+00  1.37513E+02  3.063E+00  5.477E+00  1.233E-03  4.596E-03 -2.020E-04
   1    4   20     1    20    1.6196E+01  4.3925E-03   1.6192E+01  0.000E+00  0.000E+00  0.000E+00  1.37212E+02  3.062E+00  5.476E+00  1.233E-03  4.587E-03 -1.940E-04
   1    4   21     1    21    1.6192E+01  4.3915E-03   1.6188E+01  0.000E+00  0.000E+00  0.000E+00  1.36912E+02  3.062E+00  5.476E+00  1.233E-03  4.578E-03 -1.859E-04
   1    4   22     1    22    1.6188E+01  4.3905E-03   1.6183E+01  0.000E+00  0.000E+00  0.000E+00  1.36612E+02  3.062E+00  5.476E+00  1.233E-03  4.568E-03 -1.775E-04
   1    4   23     1    23    1.6183E+01  4.3895E-03   1.6179E+01  0.000E+00  0.000E+00  0.000E+00  1.36311E+02  3.061E+00  5.475E+00  1.233E-03  4.559E-03 -1.690E-04
   1    4   24     1    24    1.6179E+01  4.3886E-03   1.6174E+01  0.000E+00  0.000E+00  0.000E+00  1.36011E+02  3.061E+00  5.475E+00  1.232E-03  4.546E-03 -1.563E-04
   1    4   25     1    25    1.6174E+01  4.3876E-03   1.6170E+01  0.000E+00  0.000E+00  0.000E+00  1.35710E+02  3.060E+00  5.474E+00  1.232E-03  4.529E-03 -1.408E-04
   1    4   26     1    26    1.6170E+01  4.3866E-03   1.6166E+01  0.000E+00  0.000E+00  0.000E+00  1.35410E+02  3.060E+00  5.474E+00  1.232E-03  4.512E-03 -1.244E-04
   1    4   27     1    27    1.6166E+01  4.3856E-03   1.6161E+01  0.000E+00  0.000E+00  0.000E+00  1.35110E+02  3.060E+00  5.473E+00  1.232E-03  4.494E-03 -1.071E-04
   1    4   28     1    28    1.6161E+01  4.3846E-03   1.6157E+01  0.000E+00  0.000E+00  0.000E+00  1.34809E+02  3.059E+00  5.473E+00  1.232E-03  4.474E-03 -8.857E-05
   1    4   29     1    29    1.6157E+01  4.3837E-03   1.6152E+01  0.000E+00  0.000E+00  0.000E+00  1.34509E+02  3.059E+00  5.472E+00  1.232E-03  4.454E-03 -6.884E-05
   1    4   30     1    30    1.6152E+01  4.3827E-03   1.6148E+01  0.000E+00  0.000E+00  0.000E+00  1.34208E+02  3.058E+00  5.472E+00  1.232E-03  4.432E-03 -4.779E-05
   1    4   31     1    31    1.6148E+01  4.3817E-03   1.6144E+01  0.000E+00  0.000E+00  0.000E+00  1.33908E+02  3.058E+00  5.471E+00  1.232E-03  4.408E-03 -2.536E-05
   1    4   32     1    32    1.6144E+01  4.3807E-03   1.6139E+01  0.000E+00  0.000E+00  0.000E+00  1.33608E+02  3.058E+00  5.471E+00  1.231E-03  4.383E-03 -1.498E-06
   1    4   33     1    33    1.6139E+01  4.3797E-03   1.6135E+01  0.000E+00  0.000E+00  0.000E+00  1.33307E+02  3.057E+00  5.470E+00  1.231E-03  4.357E-03  2.383E-05
   1    4   34     1    34    1.6135E+01  4.3788E-03   1.6131E+01  0.000E+00  0.000E+00  0.000E+00  1.33007E+02  3.057E+00  5.470E+00  1.231E-03  4.329E-03  5.060E-05
   1    4   35     1    35    1.6131E+01  4.3778E-03   1.6126E+01  0.000E+00  0.000E+00  0.000E+00  1.32706E+02  3.056E+00  5.469E+00  1.231E-03  4.300E-03  7.876E-05
   1    4   36     1    36    1.6126E+01  4.3768E-03   1.6122E+01  0.000E+00  0.000E+00  0.000E+00  1.32406E+02  3.056E+00  5.469E+00  1.231E-03  4.269E-03  1.084E-04
   1    4   37     1    37    1.6122E+01  4.3758E-03   1.6117E+01  0.000E+00  0.000E+00  0.000E+00  1.32105E+02  3.055E+00  5.468E+00  1.231E-03  4.238E-03  1.393E-04
   1    4   38     1    38    1.6117E+01  4.3748E-03   1.6113E+01  0.000E+00  0.000E+00  0.000E+00  1.31805E+02  3.055E+00  5.468E+00  1.231E-03  4.227E-03  1.494E-04
   1    4   39     1    39    1.6113E+01  4.3739E-03   1.6109E+01  0.000E+00  0.000E+00  0.000E+00  1.31505E+02  3.055E+00  5.467E+00  1.230E-03  4.298E-03  7.658E-05
   1    4   40     1    40    1.6109E+01  4.3729E-03   1.6104E+01  0.000E+00  0.000E+00  0.000E+00  1.31204E+02  3.054E+00  5.467E+00  1.230E-03  4.364E-03  1.016E-05
   1    4   41     1    41    1.6104E+01  4.3719E-03   1.6100E+01  0.000E+00  0.000E+00  0.000E+00  1.30904E+02  3.054E+00  5.466E+00  1.230E-03  4.332E-03  4.092E-05
   1    4   42     1    42    1.6100E+01  4.3709E-03   1.6096E+01  0.000E+00  0.000E+00  0.000E+00  1.30603E+02  3.053E+00  5.466E+00  1.230E-03  4.302E-03  7.018E-05
   1    4   43     1    43    1.6096E+01  4.3699E-03   1.6091E+01  0.000E+00  0.000E+00  0.000E+00  1.30303E+02  3.053E+00  5.465E+00  1.230E-03  4.274E-03  9.738E-05
   1    4   44     1    44    1.6091E+01  4.3690E-03   1.6087E+01  0.000E+00  0.000E+00  0.000E+00  1.30003E+02  3.053E+00  5.465E+00  1.230E-03  4.308E-03  6.175E-05
   1    4   45     1    45    1.6087E+01  4.3680E-03   1.6082E+01  0.000E+00  0.000E+00  0.000E+00  1.29702E+02  3.052E+00  5.464E+00  1.230E-03  4.482E-03 -1.126E-04
   1    4   46     1    46    1.6082E+01  4.3670E-03   1.6078E+01  0.000E+00  0.000E+00  0.000E+00  1.29402E+02  3.052E+00  5.464E+00  1.230E-03  4.624E-03 -2.561E-04
   1    4   47     1    47    1.6078E+01  4.3660E-03   1.6074E+01  0.000E+00  0.000E+00  0.000E+00  1.29101E+02  3.051E+00  5.463E+00  1.229E-03  4.628E-03 -2.613E-04
   1    4   48     1    48    1.6074E+01  4.3651E-03   1.6069E+01  0.000E+00  0.000E+00  0.000E+00  1.28801E+02  3.051E+00  5.463E+00  1.229E-03  4.892E-03 -5.262E-04
   1    4   49     1    49    1.6069E+01  4.3641E-03   1.6065E+01  0.000E+00  0.000E+00  0.000E+00  1.28501E+02  3.051E+00  5.462E+00  1.229E-03  4.739E-03 -3.738E-04
   1    4   50     1    50    1.6065E+01  4.3631E-03   1.6061E+01  0.000E+00  0.000E+00  0.000E+00  1.28200E+02  3.050E+00  5.462E+00  1.229E-03  5.174E-03 -8.103E-04
   1    4   51     1    51    1.6061E+01  4.3621E-03   1.6056E+01  0.000E+00  0.000E+00  0.000E+00  1.27900E+02  3.050E+00  5.461E+00  1.229E-03  4.916E-03 -5.524E-04
   1    4   52     1    52    1.6056E+01  4.3612E-03   1.6052E+01  0.000E+00  0.000E+00  0.000E+00  1.27599E+02  3.049E+00  5.461E+00  1.229E-03  4.788E-03 -4.255E-04
   1    4   53     1    53    1.6052E+01  4.3602E-03   1.6048E+01  0.000E+00  0.000E+00  0.000E+00  1.27299E+02  3.049E+00  5.460E+00  1.229E-03  4.783E-03 -4.215E-04
   1    4   54     1    54    1.6048E+01  4.3592E-03   1.6043E+01  0.000E+00  0.000E+00  0.000E+00  1.26999E+02  3.049E+00  5.460E+00  1.228E-03  4.900E-03 -5.393E-04
   1    4   55     1    55    1.6043E+01  4.3582E-03   1.6039E+01  0.000E+00  0.000E+00  0.000E+00  1.26698E+02  3.048E+00  5.459E+00  1.228E-03  5.175E-03 -8.159E-04
   1    4   56     1    56    1.6039E+01  4.3573E-03   1.6034E+01  0.000E+00  0.000E+00  0.000E+00  1.26398E+02  3.048E+00  5.459E+00  1.228E-03  4.724E-03 -3.659E-04
   1    4   57     1    57    1.6034E+01  4.3563E-03   1.6030E+01  0.000E+00  0.000E+00  0.000E+00  1.26097E+02  3.047E+00  5.458E+00  1.228E-03  4.795E-03 -4.372E-04
   1    4   58     1    58    1.6030E+01  4.3553E-03   1.6026E+01  0.000E+00  0.000E+00  0.000E+00  1.25797E+02  3.047E+00  5.458E+00  1.228E-03  4.569E-03 -2.130E-04
   1    4   59     1    59    1.6026E+01  4.3543E-03   1.6021E+01  0.000E+00  0.000E+00  0.000E+00  1.25496E+02  3.046E+00  5.457E+00  1.228E-03  4.550E-03 -1.943E-04
   1    4   60     1    60    1.6021E+01  4.3534E-03   1.6017E+01  0.000E+00  0.000E+00  0.000E+00  1.25196E+02  3.046E+00  5.457E+00  1.228E-03  4.299E-03  5.523E-05
   1    4   61     1    61    1.6017E+01  4.3524E-03   1.6013E+01  0.000E+00  0.000E+00  0.000E+00  1.24896E+02  3.046E+00  5.456E+00  1.228E-03  4.157E-03  1.964E-04
   1    4   62     1    62    1.6013E+01  4.3514E-03   1.6008E+01  0.000E+00  0.000E+00  0.000E+00  1.24595E+02  3.045E+00  5.456E+00  1.227E-03  4.169E-03  1.831E-04
   1    4   63     1    63    1.6008E+01  4.3504E-03   1.6004E+01  0.000E+00  0.000E+00  0.000E+00  1.24295E+02  3.045E+00  5.455E+00  1.227E-03  4.186E-03  1.658E-04
   1    4   64     1    64    1.6004E+01  4.3495E-03   1.6000E+01  0.000E+00  0.000E+00  0.000E+00  1.23994E+02  3.044E+00  5.455E+00  1.227E-03  4.191E-03  1.599E-04
   1    4   65     1    65    1.6000E+01  4.3485E-03   1.5995E+01  0.000E+00  0.000E+00  0.000E+00  1.23694E+02  3.044E+00  5.454E+00  1.227E-03  4.068E-03  2.811E-04
   1    4   66     1    66    1.5995E+01  4.3475E-03   1.5991E+01  0.000E+00  0.000E+00  0.000E+00  1.23394E+02  3.044E+00  5.454E+00  1.227E-03  4.033E-03  3.154E-04
   1    4   67     1    67    1.5991E+01  4.3465E-03   1.5987E+01  0.000E+00  0.000E+00  0.000E+00  1.23093E+02  3.043E+00  5.453E+00  1.227E-03  4.057E-03  2.904E-04
   1    4   68     1    68    1.5987E+01  4.3456E-03   1.5982E+01  0.000E+00  0.000E+00  0.000E+00  1.22793E+02  3.043E+00  5.453E+00  1.227E-03  4.080E-03  2.660E-04
   1    4   69     1    69    1.5982E+01  4.3446E-03   1.5978E+01  0.000E+00  0.000E+00  0.000E+00  1.22492E+02  3.042E+00  5.453E+00  1.226E-03  4.103E-03  2.424E-04
   1    4   70     1    70    1.5978E+01  4.3436E-03   1.5974E+01  0.000E+00  0.000E+00  0.000E+00  1.22192E+02  3.042E+00  5.452E+00  1.226E-03  4.125E-03  2.196E-04
   1    4   71     1    71    1.5974E+01  4.3426E-03   1.5969E+01  0.000E+00  0.000E+00  0.000E+00  1.21892E+02  3.042E+00  5.452E+00  1.226E-03  4.146E-03  1.980E-04
   1    4   72     1    72    1.5969E+01  4.3417E-03   1.5965E+01  0.000E+00  0.000E+00  0.000E+00  1.21591E+02  3.041E+00  5.451E+00  1.226E-03  4.165E-03  1.776E-04
   1    4   73     1    73    1.5965E+01  4.3407E-03   1.5961E+01  0.000E+00  0.000E+00  0.000E+00  1.21291E+02  3.041E+00  5.451E+00  1.226E-03  4.183E-03  1.586E-04
   1    4   74     1    74    1.5961E+01  4.3397E-03   1.5956E+01  0.000E+00  0.000E+00  0.000E+00  1.20990E+02  3.040E+00  5.450E+00  1.226E-03  4.200E-03  1.408E-04
   1    4   75     1    75    1.5956E+01  4.3387E-03   1.5952E+01  0.000E+00  0.000E+00  0.000E+00  1.20690E+02  3.040E+00  5.450E+00  1.226E-03  4.215E-03  1.243E-04
   1    4   76     1    76    1.5952E+01  4.3378E-03   1.5948E+01  0.000E+00  0.000E+00  0.000E+00  1.20390E+02  3.040E+00  5.449E+00  1.226E-03  4.230E-03  1.089E-04
   1    4   77     1    77    1.5948E+01  4.3368E-03   1.5943E+01  0.000E+00  0.000E+00  0.000E+00  1.20089E+02  3.039E+00  5.449E+00  1.225E-03  4.243E-03  9.449E-05
   1    4   78     1    78    1.5943E+01  4.3358E-03   1.5939E+01  0.000E+00  0.000E+00  0.000E+00  1.19789E+02  3.039E+00  5.448E+00  1.225E-03  4.255E-03  8.107E-05
   1    4   79     1    79    1.5939E+01  4.3349E-03   1.5935E+01  0.000E+00  0.000E+00  0.000E+00  1.19488E+02  3.038E+00  5.448E+00  1.225E-03  4.264E-03  7.154E-05
   1    4   80     1    80    1.5935E+01  4.3339E-03   1.5930E+01  0.000E+00  0.000E+00  0.000E+00  1.19188E+02  3.038E+00  5.447E+00  1.225E-03  4.271E-03  6.351E-05
   1    4   81     1    81    1.5930E+01  4.3329E-03   1.5926E+01  0.000E+00  0.000E+00  0.000E+00  1.18887E+02  3.037E+00  5.447E+00  1.225E-03  4.278E-03  5.504E-05
   1    4   82     1    82    1.5926E+01  4.3320E-03   1.5922E+01  0.000E+00  0.000E+00  0.000E+00  1.18587E+02  3.037E+00  5.446E+00  1.225E-03  4.286E-03  4.608E-05
   1    4   83     1    83    1.5922E+01  4.3310E-03   1.5917E+01  0.000E+00  0.000E+00  0.000E+00  1.18287E+02  3.037E+00  5.446E+00  1.225E-03  4.295E-03  3.657E-05
   1    4   84     1    84    1.5917E+01  4.3300E-03   1.5913E+01  0.000E+00  0.000E+00  0.000E+00  1.17986E+02  3.036E+00  5.445E+00  1.224E-03  4.304E-03  2.643E-05
   1    4   85     1    85    1.5913E+01  4.3290E-03   1.5909E+01  0.000E+00  0.000E+00  0.000E+00  1.17686E+02  3.036E+00  5.445E+00  1.224E-03  4.314E-03  1.558E-05
   1    4   86     1    86    1.5909E+01  4.3281E-03   1.5904E+01  0.000E+00  0.000E+00  0.000E+00  1.17385E+02  3.035E+00  5.444E+00  1.224E-03  4.324E-03  3.903E-06
   1    4   87     1    87    1.5904E+01  4.3271E-03   1.5900E+01  0.000E+00  0.000E+00  0.000E+00  1.17085E+02  3.035E+00  5.444E+00  1.224E-03  4.336E-03 -8.669E-06
   1    4   88     1    88    1.5900E+01  4.3261E-03   1.5896E+01  0.000E+00  0.000E+00  0.000E+00  1.16785E+02  3.035E+00  5.443E+00  1.224E-03  4.347E-03 -2.044E-05
   1    4   89     1    89    1.5896E+01  4.3252E-03   1.5891E+01  0.000E+00  0.000E+00  0.000E+00  1.16484E+02  3.034E+00  5.443E+00  1.224E-03  4.356E-03 -2.985E-05
   1    4   90     1    90    1.5891E+01  4.3242E-03   1.5887E+01  0.000E+00  0.000E+00  0.000E+00  1.16184E+02  3.034E+00  5.442E+00  1.224E-03  4.365E-03 -3.965E-05
   1    4   91     1    91    1.5887E+01  4.3232E-03   1.5883E+01  0.000E+00  0.000E+00  0.000E+00  1.15883E+02  3.033E+00  5.442E+00  1.224E-03  4.374E-03 -5.022E-05
   1    4   92     1    92    1.5883E+01  4.3223E-03   1.5878E+01  0.000E+00  0.000E+00  0.000E+00  1.15583E+02  3.033E+00  5.441E+00  1.223E-03  4.385E-03 -6.157E-05
   1    4   93     1    93    1.5878E+01  4.3213E-03   1.5874E+01  0.000E+00  0.000E+00  0.000E+00  1.15283E+02  3.033E+00  5.441E+00  1.223E-03  4.396E-03 -7.389E-05
   1    4   94     1    94    1.5874E+01  4.3203E-03   1.5870E+01  0.000E+00  0.000E+00  0.000E+00  1.14982E+02  3.032E+00  5.440E+00  1.223E-03  4.409E-03 -8.740E-05
   1    4   95     1    95    1.5870E+01  4.3193E-03   1.5865E+01  0.000E+00  0.000E+00  0.000E+00  1.14682E+02  3.032E+00  5.440E+00  1.223E-03  4.422E-03 -1.023E-04
   1    4   96     1    96    1.5865E+01  4.3184E-03   1.5861E+01  0.000E+00  0.000E+00  0.000E+00  1.14381E+02  3.031E+00  5.439E+00  1.223E-03  4.438E-03 -1.188E-04
   1    4   97     1    97    1.5861E+01  4.3174E-03   1.5857E+01  0.000E+00  0.000E+00  0.000E+00  1.14081E+02  3.031E+00  5.439E+00  1.223E-03  4.455E-03 -1.369E-04
   1    4   98     1    98    1.5857E+01  4.3164E-03   1.5852E+01  0.000E+00  0.000E+00  0.000E+00  1.13781E+02  3.031E+00  5.438E+00  1.223E-03  4.474E-03 -1.567E-04
   1    4   99     1    99    1.5852E+01  4.3155E-03   1.5848E+01  0.000E+00  0.000E+00  0.000E+00  1.13480E+02  3.030E+00  5.438E+00  1.222E-03  4.495E-03 -1.782E-04
   1    4  100     1   100    1.5848E+01  4.3145E-03   1.5844E+01  0.000E+00  0.000E+00  0.000E+00  1.13180E+02  3.030E+00  5.437E+00  1.222E-03  4.516E-03 -2.012E-04



1
  VOLUMETRIC BUDGET FOR UNSATURATED ZONE BENEATH STREAMS AT END OF TIME STEP    30 STRESS PERIOD   9
  ------------------------------------------------------------------------------------------------

    CUMULATIVE VOLUMES             L**3    RATES FOR THIS TIME STEP         L**3/T
    ------------------                     ------------------------


          STREAM LOSS =     11622821.0000            STREAM LOSS =            0.4363
    CHANGE IN STORAGE =      1664464.6250      CHANGE IN STORAGE =       -9.3666E-03
       RECHARGE TO GW =      9961527.0000         RECHARGE TO GW =            0.4457

             TOTAL IN =     11622821.0000               TOTAL IN =            0.4456

            TOTAL OUT =     11625992.0000              TOTAL OUT =            0.4457

             IN - OUT =        -3171.0000               IN - OUT =       -7.0989E-05

  PERCENT DISCREPANCY =           -0.01      PERCENT DISCREPANCY =            -0.00



1
  VOLUMETRIC BUDGET FOR ENTIRE MODEL AT END OF TIME STEP   30, STRESS PERIOD   9
  ------------------------------------------------------------------------------

     CUMULATIVE VOLUMES      L**3       RATES FOR THIS TIME STEP      L**3/T
     ------------------                 ------------------------

           IN:                                      IN:
           ---                                      ---
             STORAGE     =    53960900.0000               STORAGE     =           1.8048
       CONSTANT HEAD     =           0.0000         CONSTANT HEAD     =           0.0000
               WELLS     =           0.0000                 WELLS     =           0.0000
     HEAD DEP BOUNDS     =           0.0000       HEAD DEP BOUNDS     =           0.0000
      STREAM LEAKAGE     =     9961544.0000        STREAM LEAKAGE     =           0.4457

                TOTAL IN =    63922444.0000                  TOTAL IN =           2.2505

          OUT:                                     OUT:
          ----                                     ----
             STORAGE     =     1345326.8750               STORAGE     =       5.3456E-04
       CONSTANT HEAD     =           0.0000         CONSTANT HEAD     =           0.0000
               WELLS     =    51158384.0000                 WELLS     =           1.9789
     HEAD DEP BOUNDS     =    11418726.0000       HEAD DEP BOUNDS     =           0.2711
      STREAM LEAKAGE     =           0.0000        STREAM LEAKAGE     =           0.0000

               TOTAL OUT =    63922440.0000                 TOTAL OUT =           2.2505

                IN - OUT =           4.0000                  IN - OUT =       2.3842E-07

     PERCENT DISCREPANCY =           0.00         PERCENT DISCREPANCY =           0.00






         TIME SUMMARY AT END OF TIME STEP   30 IN STRESS PERIOD    9
                    SECONDS     MINUTES      HOURS       DAYS        YEARS
                    -----------------------------------------------------------
   TIME STEP LENGTH 2.49961E+05  4166.0      69.434      2.8931     7.92080E-03
 STRESS PERIOD TIME 2.59200E+06  43200.      720.00      30.000     8.21355E-02
         TOTAL TIME 2.33280E+07 3.88800E+05  6480.0      270.00     0.73922    
1
1
                            STRESS PERIOD NO.   10, LENGTH =   2592000.    
                            -----------------------------------------------

                              NUMBER OF TIME STEPS =    30

                               MULTIPLIER FOR DELT =     1.100

                            INITIAL TIME STEP SIZE =   15757.40    

 REUSING NON-PARAMETER WELLS FROM LAST STRESS PERIOD

      1 WELL 

 REUSING NON-PARAMETER GHB CELLS FROM LAST STRESS PERIOD

      7 GHB CELLS



 CLASSIFICATION & COUNT OF STREAM SEGMENTS BASED ON SOURCE OF INFLOW:

                HEADWATER     DIVERSION     RECEIVES TRIBUTARY FLOW
                ---------     ---------     -----------------------
                     1              0               0



                    INPUT DATA FOR EACH STREAM SEGMENT
 ---------------------------------------------------------------------------------------------

 SEGMENT    SEG.     INFLOW   OVERLAND   STREAM    STREAM   ICALC  OUTFLOW  DIVERSION PRIORITY
    NO.    LENGTH     RATE     RUNOFF      ET       PPT.    METH.  TO SEG.  FROM SEG.    NO.

      1  2.000E+04 1.134E+01 0.000E+00 0.000E+00 0.000E+00    2        0        0        0


         STREAMBED PROPERTIES AND STREAM DIMENSIONS

 SEGMENT     BED HYD. COND.      BED THICKNESS     ELEV.-TOP OF BED     WIDTH OF STREAM     DEPTH OF STREAM    STREAM ROUGHNESS
    No.     UPPER     LOWER     UPPER     LOWER     UPPER     LOWER     UPPER     LOWER     UPPER     LOWER   CHANNEL      BANK

     1  3.500E-07 3.500E-07                                                                                 3.000E-02 4.000E-02

  EIGHT POINT CROSS-SECTION DATA FOR SEGMENTS WITH ICALC = 2
    X VALUES X VALUES START FROM LEFT SIDE LOOKING DOWNSTREAM

     SEGMENT NO.        X1        X2        X3        X4        X5        X6        X7        X8
            1      0.000E+00 2.000E+00 4.000E+00 6.000E+00 8.000E+00 1.000E+01 1.200E+01 1.400E+01

    Z VALUES ARE RELATIVE TO STREAMBED ELEVATION

     SEGMENT NO.          Z1        Z2        Z3        Z4        Z5        Z6        Z7        Z8
            1      6.000E+00 4.500E+00 3.500E+00 0.000E+00 3.000E-01 3.500E+00 4.500E+00 6.000E+00



 
 SOLVING FOR HEAD 
                                                   Max.-Head-Change                         Max.-Flux-Residual
  Residual-Control   Outer-Iter.   Inner-Iter.     Column Row Layer    Maximum-Head-Change  Column Row Layer    Maximum-Flux-Residual          L2-NORM 
          0                 1           2            50    3     1       0.1148188216E+01      50    3    1         0.3965539427E+00      0.5578376510E+00
          0                 2           2            55    5     1      -0.8175287963E-01      55    5    1        -0.2807981714E-01      0.4062675940E-01
          0                 3           2            55    5     1       0.7539431213E-02      55    5    1         0.2603650501E-02      0.3751992095E-02
          0                 4           2            55    5     1      -0.5965904791E-03      55    5    1        -0.2079208020E-03      0.2997496160E-03
          0                 5           1            55    5     1       0.4157351088E-04      55    5    1         0.1462107912E-04      0.2107875831E-04
          0                 6           1            55    5     1      -0.2496299125E-05      55    5    1        -0.8859710929E-06      0.1277332313E-05
          0                 7           1            55    5     1       0.1261352183E-06      55    5    1         0.4517679830E-07      0.6513877244E-07

    ------------------------------------------------
       NWT REQUIRED            7 OUTER ITERATIONS 
       AND A TOTAL OF         11 INNER ITERATIONS.
    ------------------------------------------------

 NO OUTPUT CONTROL FOR STRESS PERIOD   10   TIME STEP    1
 
 WELLS WITH REDUCED PUMPING FOR STRESS PERIOD    10 TIME STEP     1
   LAY   ROW   COL         APPL.Q          ACT.Q        GW-HEAD       CELL-BOT
     1     3    50  -0.730089E+00  -0.677290E+00   0.935706E+01   0.000000E+00
     1     5    55  -0.730089E+00  -0.659728E+00   0.896957E+01   0.000000E+00
 
 
 SOLVING FOR HEAD 
                                                   Max.-Head-Change                         Max.-Flux-Residual
  Residual-Control   Outer-Iter.   Inner-Iter.     Column Row Layer    Maximum-Head-Change  Column Row Layer    Maximum-Flux-Residual          L2-NORM 
          0                 1           2            50    3     1       0.8304245950E+00      50    3    1         0.2454009817E+00      0.3511945936E+00
          0                 2           2            50    3     1      -0.5541994309E-01      55    5    1        -0.1671430719E-01      0.2520772383E-01
          0                 3           2            50    3     1       0.5123279256E-02      55    5    1         0.1545918131E-02      0.2322241827E-02
          0                 4           2            50    3     1      -0.4055472659E-03      55    5    1        -0.1234868219E-03      0.1857023724E-03
          0                 5           1            50    3     1       0.2826099798E-04      55    5    1         0.8683325526E-05      0.1305913681E-04
          0                 6           1            50    3     1      -0.1696948573E-05      55    5    1        -0.5261636400E-06      0.7913112629E-06
          0                 7           1            50    3     1       0.8574471996E-07      55    5    1         0.2682919231E-07      0.4034830016E-07

    ------------------------------------------------
       NWT REQUIRED            7 OUTER ITERATIONS 
       AND A TOTAL OF         11 INNER ITERATIONS.
    ------------------------------------------------

 NO OUTPUT CONTROL FOR STRESS PERIOD   10   TIME STEP    2
 
 WELLS WITH REDUCED PUMPING FOR STRESS PERIOD    10 TIME STEP     2
   LAY   ROW   COL         APPL.Q          ACT.Q        GW-HEAD       CELL-BOT
     1     3    50  -0.730036E+00  -0.711549E+00   0.101368E+02   0.000000E+00
     1     5    55  -0.730036E+00  -0.697972E+00   0.969648E+01   0.000000E+00
 
 
 SOLVING FOR HEAD 
                                                   Max.-Head-Change                         Max.-Flux-Residual
  Residual-Control   Outer-Iter.   Inner-Iter.     Column Row Layer    Maximum-Head-Change  Column Row Layer    Maximum-Flux-Residual          L2-NORM 
          0                 1           2            50    3     1       0.6465151275E+00      50    3    1         0.1620034863E+00      0.2424777883E+00
          0                 2           2            50    3     1      -0.4101349362E-01      55    5    1        -0.1065457803E-01      0.1766923303E-01
          0                 3           2            50    3     1       0.3778312408E-02      55    5    1         0.9835595244E-03      0.1628087591E-02
          0                 4           2            50    3     1      -0.2991436265E-03      55    5    1        -0.7857686024E-04      0.1304506626E-03
          0                 5           1            50    3     1       0.2084547918E-04      55    5    1         0.5525191598E-05      0.9176196625E-05
          0                 6           1            50    3     1      -0.1251680721E-05      55    5    1        -0.3347972334E-06      0.5560542175E-06
          0                 7           1            50    3     1       0.6324560060E-07      55    5    1         0.1707136299E-07      0.2835314531E-07

    ------------------------------------------------
       NWT REQUIRED            7 OUTER ITERATIONS 
       AND A TOTAL OF         11 INNER ITERATIONS.
    ------------------------------------------------

 NO OUTPUT CONTROL FOR STRESS PERIOD   10   TIME STEP    3
 
 WELLS WITH REDUCED PUMPING FOR STRESS PERIOD    10 TIME STEP     3
   LAY   ROW   COL         APPL.Q          ACT.Q        GW-HEAD       CELL-BOT
     1     3    50  -0.729982E+00  -0.726478E+00   0.107458E+02   0.000000E+00
     1     5    55  -0.729982E+00  -0.717642E+00   0.102445E+02   0.000000E+00
 
 
 SOLVING FOR HEAD 
                                                   Max.-Head-Change                         Max.-Flux-Residual
  Residual-Control   Outer-Iter.   Inner-Iter.     Column Row Layer    Maximum-Head-Change  Column Row Layer    Maximum-Flux-Residual          L2-NORM 
          0                 1           2            50    3     1       0.5436058140E+00      50    3    1         0.1149400392E+00      0.1843444779E+00
          0                 2           2            50    3     1      -0.3238261909E-01      55    5    1        -0.7154224828E-02      0.1388452619E-01
          0                 3           2            50    3     1       0.2904489832E-02      55    5    1         0.6597311399E-03      0.1273478343E-02
          0                 4           2            50    3     1      -0.2307080637E-03      55    5    1        -0.5270133336E-04      0.1024308393E-03
          0                 5           1            50    3     1       0.1607152141E-04      55    5    1         0.3705586013E-05      0.7209748440E-05
          0                 6           1            50    3     1      -0.9650383549E-06      55    5    1        -0.2245386233E-06      0.4369734692E-06

    ------------------------------------------------
       NWT REQUIRED            6 OUTER ITERATIONS 
       AND A TOTAL OF         10 INNER ITERATIONS.
    ------------------------------------------------

 NO OUTPUT CONTROL FOR STRESS PERIOD   10   TIME STEP    4
 
 WELLS WITH REDUCED PUMPING FOR STRESS PERIOD    10 TIME STEP     4
   LAY   ROW   COL         APPL.Q          ACT.Q        GW-HEAD       CELL-BOT
     1     5    55  -0.730031E+00  -0.727034E+00   0.106841E+02   0.000000E+00
 
 
 SOLVING FOR HEAD 
                                                   Max.-Head-Change                         Max.-Flux-Residual
  Residual-Control   Outer-Iter.   Inner-Iter.     Column Row Layer    Maximum-Head-Change  Column Row Layer    Maximum-Flux-Residual          L2-NORM 
          0                 1           2            50    3     1       0.4919392908E+00      50    3    1         0.8825736627E-01      0.1526661374E+00
          0                 2           2            50    3     1      -0.4495350775E-01      50    3    1        -0.9077217137E-02      0.1410112868E-01
          0                 3           2            50    3     1       0.3944023670E-02      50    3    1         0.8156461625E-03      0.1297664320E-02
          0                 4           2            50    3     1      -0.3126974281E-03      50    3    1        -0.6534135768E-04      0.1045908925E-03
          0                 5           1            50    3     1       0.2178329742E-04      50    3    1         0.4593386090E-05      0.7364629711E-05
          0                 6           1            50    3     1      -0.1307996172E-05      50    3    1        -0.2783364674E-06      0.4463927496E-06
          0                 7           1            50    3     1       0.6609031165E-07      50    3    1         0.1419216478E-07      0.2276258977E-07

    ------------------------------------------------
       NWT REQUIRED            7 OUTER ITERATIONS 
       AND A TOTAL OF         11 INNER ITERATIONS.
    ------------------------------------------------

 NO OUTPUT CONTROL FOR STRESS PERIOD   10   TIME STEP    5
 
 SOLVING FOR HEAD 
                                                   Max.-Head-Change                         Max.-Flux-Residual
  Residual-Control   Outer-Iter.   Inner-Iter.     Column Row Layer    Maximum-Head-Change  Column Row Layer    Maximum-Flux-Residual          L2-NORM 
          0                 1           2            50    3     1       0.4333033953E+00      50    3    1         0.7029121519E-01      0.1331364451E+00
          0                 2           2            50    3     1      -0.3915653024E-01      50    3    1        -0.7227770493E-02      0.1307795140E-01
          0                 3           2            50    3     1       0.3414040328E-02      50    3    1         0.6494279125E-03      0.1207764913E-02
          0                 4           2            50    3     1      -0.2703204971E-03      50    3    1        -0.5202544747E-04      0.9767574304E-04
          0                 5           1            50    3     1       0.1883011463E-04      50    3    1         0.3657300803E-05      0.6884730303E-05
          0                 6           1            50    3     1      -0.1130665191E-05      50    3    1        -0.2216124531E-06      0.4174058798E-06
          0                 7           1            50    3     1       0.5712953696E-07      50    3    1         0.1129970528E-07      0.2128402114E-07

    ------------------------------------------------
       NWT REQUIRED            7 OUTER ITERATIONS 
       AND A TOTAL OF         11 INNER ITERATIONS.
    ------------------------------------------------

 NO OUTPUT CONTROL FOR STRESS PERIOD   10   TIME STEP    6
 
 SOLVING FOR HEAD 
                                                   Max.-Head-Change                         Max.-Flux-Residual
  Residual-Control   Outer-Iter.   Inner-Iter.     Column Row Layer    Maximum-Head-Change  Column Row Layer    Maximum-Flux-Residual          L2-NORM 
          0                 1           2            50    3     1       0.3841803108E+00      50    3    1         0.5635687311E-01      0.1193001573E+00
          0                 2           2            50    3     1      -0.3437022004E-01      50    3    1        -0.5791850608E-02      0.1189813643E-01
          0                 3           2            50    3     1       0.2976636012E-02      50    3    1         0.5204016742E-03      0.1106839887E-02
          0                 4           2            50    3     1      -0.2352403299E-03      50    3    1        -0.4168893963E-04      0.8991220393E-04
          0                 5           1            50    3     1       0.1638333700E-04      50    3    1         0.2930664266E-05      0.6348357403E-05
          0                 6           1            50    3     1      -0.9837427504E-06      50    3    1        -0.1775792945E-06      0.3850731078E-06

    ------------------------------------------------
       NWT REQUIRED            6 OUTER ITERATIONS 
       AND A TOTAL OF         10 INNER ITERATIONS.
    ------------------------------------------------

 NO OUTPUT CONTROL FOR STRESS PERIOD   10   TIME STEP    7
 
 SOLVING FOR HEAD 
                                                   Max.-Head-Change                         Max.-Flux-Residual
  Residual-Control   Outer-Iter.   Inner-Iter.     Column Row Layer    Maximum-Head-Change  Column Row Layer    Maximum-Flux-Residual          L2-NORM 
          0                 1           2            50    3     1       0.3430091364E+00      50    3    1         0.4550621371E-01      0.1086504161E+00
          0                 2           2            50    3     1      -0.3041470031E-01      50    3    1        -0.4673589646E-02      0.1083490462E-01
          0                 3           2            50    3     1       0.2615547587E-02      50    3    1         0.4199307077E-03      0.1015892816E-02
          0                 4           2            50    3     1      -0.2061894368E-03      50    3    1        -0.3364003557E-04      0.8299983497E-04
          0                 5           1            50    3     1       0.1435423217E-04      50    3    1         0.2364841863E-05      0.5875428161E-05
          0                 6           1            50    3     1      -0.8618869177E-06      50    3    1        -0.1432903449E-06      0.3566816673E-06

    ------------------------------------------------
       NWT REQUIRED            6 OUTER ITERATIONS 
       AND A TOTAL OF         10 INNER ITERATIONS.
    ------------------------------------------------

 NO OUTPUT CONTROL FOR STRESS PERIOD   10   TIME STEP    8
 
 SOLVING FOR HEAD 
                                                   Max.-Head-Change                         Max.-Flux-Residual
  Residual-Control   Outer-Iter.   Inner-Iter.     Column Row Layer    Maximum-Head-Change  Column Row Layer    Maximum-Flux-Residual          L2-NORM 
          0                 1           2            50    3     1       0.3077064984E+00      50    3    1         0.3690214327E-01      0.1002696980E+00
          0                 2           2            50    3     1      -0.2707223222E-01      50    3    1        -0.3787102352E-02      0.1000510422E-01
          0                 3           2            50    3     1       0.2310912629E-02      50    3    1         0.3402882273E-03      0.9456736342E-03
          0                 4           2            50    3     1      -0.1815984785E-03      50    3    1        -0.2725975980E-04      0.7777235554E-04
          0                 5           1            50    3     1       0.1263342413E-04      50    3    1         0.1916320609E-05      0.5523784250E-05
          0                 6           1            50    3     1      -0.7585148053E-06      50    3    1        -0.1161087307E-06      0.3357451049E-06

    ------------------------------------------------
       NWT REQUIRED            6 OUTER ITERATIONS 
       AND A TOTAL OF         10 INNER ITERATIONS.
    ------------------------------------------------

 NO OUTPUT CONTROL FOR STRESS PERIOD   10   TIME STEP    9
 
 SOLVING FOR HEAD 
                                                   Max.-Head-Change                         Max.-Flux-Residual
  Residual-Control   Outer-Iter.   Inner-Iter.     Column Row Layer    Maximum-Head-Change  Column Row Layer    Maximum-Flux-Residual          L2-NORM 
          0                 1           2            50    3     1       0.2778192399E+00      50    3    1         0.3013468184E-01      0.9363305885E-01
          0                 2           2            50    3     1      -0.2427863632E-01      50    3    1        -0.3090407254E-02      0.9354185100E-02
          0                 3           2            50    3     1       0.2057228464E-02      50    3    1         0.2776970601E-03      0.8912481376E-03
          0                 4           2            50    3     1      -0.1610618134E-03      50    3    1        -0.2224553259E-04      0.7382741419E-04
          0                 5           1            50    3     1       0.1119272012E-04      50    3    1         0.1563829624E-05      0.5265141580E-05
          0                 6           1            50    3     1      -0.6718986987E-06      50    3    1        -0.9474599061E-07      0.3205697524E-06

    ------------------------------------------------
       NWT REQUIRED            6 OUTER ITERATIONS 
       AND A TOTAL OF         10 INNER ITERATIONS.
    ------------------------------------------------

 NO OUTPUT CONTROL FOR STRESS PERIOD   10   TIME STEP   10
 
 SOLVING FOR HEAD 
                                                   Max.-Head-Change                         Max.-Flux-Residual
  Residual-Control   Outer-Iter.   Inner-Iter.     Column Row Layer    Maximum-Head-Change  Column Row Layer    Maximum-Flux-Residual          L2-NORM 
          0                 1           2            50    3     1       0.2524815936E+00      50    3    1         0.2477935517E-01      0.8830340819E-01
          0                 2           2            50    3     1      -0.2193024494E-01      50    3    1        -0.2539757155E-02      0.8831206401E-02
          0                 3           2            50    3     1       0.1844414268E-02      50    3    1         0.2282243155E-03      0.8481068506E-03
          0                 4           2            50    3     1      -0.1437826045E-03      50    3    1        -0.1828227648E-04      0.7080119455E-04
          0                 5           1            50    3     1       0.9977188679E-05      50    3    1         0.1285219633E-05      0.5073776058E-05
          0                 6           1            50    3     1      -0.5987336516E-06      50    3    1        -0.7785969669E-07      0.3096102882E-06

    ------------------------------------------------
       NWT REQUIRED            6 OUTER ITERATIONS 
       AND A TOTAL OF         10 INNER ITERATIONS.
    ------------------------------------------------

 NO OUTPUT CONTROL FOR STRESS PERIOD   10   TIME STEP   11
 
 SOLVING FOR HEAD 
                                                   Max.-Head-Change                         Max.-Flux-Residual
  Residual-Control   Outer-Iter.   Inner-Iter.     Column Row Layer    Maximum-Head-Change  Column Row Layer    Maximum-Flux-Residual          L2-NORM 
          0                 1           2            50    3     1       0.2302644130E+00      50    3    1         0.2044227605E-01      0.8392407602E-01
          0                 2           2            50    3     1      -0.1989067175E-01      50    3    1        -0.2094231424E-02      0.8401355696E-02
          0                 3           2            50    3     1       0.1660297908E-02      50    3    1         0.1881941014E-03      0.8130922891E-03
          0                 4           2            50    3     1      -0.1287993865E-03      50    3    1        -0.1507549918E-04      0.6843563666E-04
          0                 5           1            50    3     1       0.8919881361E-05      50    3    1         0.1059788471E-05      0.4931443420E-05
          0                 6           1            50    3     1      -0.5349820917E-06      50    3    1        -0.6419543264E-07      0.3017739391E-06

    ------------------------------------------------
       NWT REQUIRED            6 OUTER ITERATIONS 
       AND A TOTAL OF         10 INNER ITERATIONS.
    ------------------------------------------------

 NO OUTPUT CONTROL FOR STRESS PERIOD   10   TIME STEP   12
 
 SOLVING FOR HEAD 
                                                   Max.-Head-Change                         Max.-Flux-Residual
  Residual-Control   Outer-Iter.   Inner-Iter.     Column Row Layer    Maximum-Head-Change  Column Row Layer    Maximum-Flux-Residual          L2-NORM 
          0                 1           2            50    3     1       0.2109816210E+00      50    3    1         0.1696622505E-01      0.8032312917E-01
          0                 2           2            50    3     1      -0.1813815626E-01      50    3    1        -0.1737578825E-02      0.8045185139E-02
          0                 3           2            50    3     1       0.1502711797E-02      50    3    1         0.1561460513E-03      0.7844674374E-03
          0                 4           2            50    3     1      -0.1159454231E-03      50    3    1        -0.1250820344E-04      0.6658731136E-04
          0                 5           1            50    3     1       0.8009549397E-05      50    3    1         0.8793115048E-06      0.4827693778E-05
          0                 6           1            50    3     1      -0.4799636807E-06      50    3    1        -0.5325483710E-07      0.2964205726E-06

    ------------------------------------------------
       NWT REQUIRED            6 OUTER ITERATIONS 
       AND A TOTAL OF         10 INNER ITERATIONS.
    ------------------------------------------------

 NO OUTPUT CONTROL FOR STRESS PERIOD   10   TIME STEP   13
 
 SOLVING FOR HEAD 
                                                   Max.-Head-Change                         Max.-Flux-Residual
  Residual-Control   Outer-Iter.   Inner-Iter.     Column Row Layer    Maximum-Head-Change  Column Row Layer    Maximum-Flux-Residual          L2-NORM 
          0                 1           2            50    3     1       0.1940079012E+00      50    3    1         0.1415858600E-01      0.7732824167E-01
          0                 2           2            50    3     1      -0.1660982046E-01      50    3    1        -0.1449809312E-02      0.7751304861E-02
          0                 3           2            50    3     1       0.1365950707E-02      50    3    1         0.1302852243E-03      0.7612622163E-03
          0                 4           1            50    2     1      -0.1066231758E-03      50    3    1        -0.1043658328E-04      0.6516321645E-04
          0                 5           1            50    2     1       0.7404006725E-05      50    3    1         0.7330883960E-06      0.4752182502E-05
          0                 6           1            50    2     1      -0.4441496653E-06      50    3    1        -0.4438963797E-07      0.2928764442E-06

    ------------------------------------------------
       NWT REQUIRED            6 OUTER ITERATIONS 
       AND A TOTAL OF          9 INNER ITERATIONS.
    ------------------------------------------------

 NO OUTPUT CONTROL FOR STRESS PERIOD   10   TIME STEP   14
 
 SOLVING FOR HEAD 
                                                   Max.-Head-Change                         Max.-Flux-Residual
  Residual-Control   Outer-Iter.   Inner-Iter.     Column Row Layer    Maximum-Head-Change  Column Row Layer    Maximum-Flux-Residual          L2-NORM 
          0                 1           2            50    3     1       0.1783177601E+00      50    3    1         0.1182147486E-01      0.7487018512E-01
          0                 2           2            50    3     1      -0.1521563499E-01      50    3    1        -0.1210343428E-02      0.7497984422E-02
          0                 3           2            50    2     1       0.1256223742E-02      50    3    1         0.1087642250E-03      0.7410559976E-03
          0                 4           1            50    2     1      -0.9868421316E-04      50    3    1        -0.8712629731E-05      0.6397457583E-04
          0                 5           1            50    2     1       0.6844263561E-05      50    3    1         0.6117803946E-06      0.4697218005E-05
          0                 6           1            50    2     1      -0.4103443434E-06      50    3    1        -0.3703398066E-07      0.2907742556E-06

    ------------------------------------------------
       NWT REQUIRED            6 OUTER ITERATIONS 
       AND A TOTAL OF          9 INNER ITERATIONS.
    ------------------------------------------------

 NO OUTPUT CONTROL FOR STRESS PERIOD   10   TIME STEP   15
 
 SOLVING FOR HEAD 
                                                   Max.-Head-Change                         Max.-Flux-Residual
  Residual-Control   Outer-Iter.   Inner-Iter.     Column Row Layer    Maximum-Head-Change  Column Row Layer    Maximum-Flux-Residual          L2-NORM 
          0                 1           2            50    3     1       0.1629318111E+00      50    3    1         0.9879793566E-02      0.7289035610E-01
          0                 2           2            50    3     1      -0.1394575627E-01      50    3    1        -0.1011245585E-02      0.7290147324E-02
          0                 3           2            50    2     1       0.1157261140E-02      50    3    1         0.9086986403E-04      0.7245558644E-03
          0                 4           1            50    1     1      -0.9103854609E-04      50    3    1        -0.7279223774E-05      0.6307739588E-04
          0                 5           1            50    1     1       0.6318722039E-05      63    4    1         0.5571268655E-06      0.4664115740E-05
          0                 6           1            50    1     1      -0.3786191662E-06      64    4    1        -0.3575691210E-07      0.2901462347E-06

    ------------------------------------------------
       NWT REQUIRED            6 OUTER ITERATIONS 
       AND A TOTAL OF          9 INNER ITERATIONS.
    ------------------------------------------------

 NO OUTPUT CONTROL FOR STRESS PERIOD   10   TIME STEP   16
 
 SOLVING FOR HEAD 
                                                   Max.-Head-Change                         Max.-Flux-Residual
  Residual-Control   Outer-Iter.   Inner-Iter.     Column Row Layer    Maximum-Head-Change  Column Row Layer    Maximum-Flux-Residual          L2-NORM 
          0                 1           2            50    3     1       0.1486345301E+00      50    3    1         0.8208126210E-02      0.7133855135E-01
          0                 2           2            50    3     1      -0.1268148346E-01      50    3    1        -0.8399546926E-03      0.7125712517E-02
          0                 3           2            50    1     1       0.1059005323E-02      50    3    1         0.7547695443E-04      0.7118041496E-03
          0                 4           1            50    1     1      -0.8354727822E-04      63    4    1        -0.7125302975E-05      0.6245940462E-04
          0                 5           1            50    1     1       0.5790700574E-05      63    4    1         0.5729731694E-06      0.4650178758E-05
          0                 6           1            50    1     1      -0.3466711743E-06      64    4    1        -0.3711708096E-07      0.2907512168E-06

    ------------------------------------------------
       NWT REQUIRED            6 OUTER ITERATIONS 
       AND A TOTAL OF          9 INNER ITERATIONS.
    ------------------------------------------------

 NO OUTPUT CONTROL FOR STRESS PERIOD   10   TIME STEP   17
 
 SOLVING FOR HEAD 
                                                   Max.-Head-Change                         Max.-Flux-Residual
  Residual-Control   Outer-Iter.   Inner-Iter.     Column Row Layer    Maximum-Head-Change  Column Row Layer    Maximum-Flux-Residual          L2-NORM 
          0                 1           2            50    3     1       0.1353220429E+00      50    3    1         0.6792382719E-02      0.7003301666E-01
          0                 2           2            50    3     1      -0.1150397609E-01      50    3    1        -0.6949183113E-03      0.6996312291E-02
          0                 3           2            50    1     1       0.9609138734E-03      63    4    1         0.6640447275E-04      0.7022727089E-03
          0                 4           1            50    1     1      -0.7569778654E-04      63    4    1        -0.7239241739E-05      0.6207714235E-04
          0                 5           1            50    1     1       0.5236820700E-05      64    4    1         0.5884081560E-06      0.4651317224E-05
          0                 6           1            50    1     1      -0.3131290750E-06      64    4    1        -0.3839489793E-07      0.2922665140E-06

    ------------------------------------------------
       NWT REQUIRED            6 OUTER ITERATIONS 
       AND A TOTAL OF          9 INNER ITERATIONS.
    ------------------------------------------------

 NO OUTPUT CONTROL FOR STRESS PERIOD   10   TIME STEP   18
 
 SOLVING FOR HEAD 
                                                   Max.-Head-Change                         Max.-Flux-Residual
  Residual-Control   Outer-Iter.   Inner-Iter.     Column Row Layer    Maximum-Head-Change  Column Row Layer    Maximum-Flux-Residual          L2-NORM 
          0                 1           2            63    1     1      -0.1357939081E+00      50    3    1         0.5640412271E-02      0.6893956491E-01
          0                 2           2            62    1     1       0.1207702401E-01      50    3    1        -0.5767989296E-03      0.6887488546E-02
          0                 3           2            62    1     1      -0.9941488103E-03      63    4    1         0.6653450918E-04      0.6941130862E-03
          0                 4           1            62    1     1       0.7461870797E-04      63    4    1        -0.7330116640E-05      0.6177208817E-04
          0                 5           1            62    1     1      -0.5010415263E-05      64    4    1         0.6025882726E-06      0.4656273466E-05
          0                 6           1            62    1     1       0.2947195356E-06      64    4    1        -0.3958920836E-07      0.2940109763E-06

    ------------------------------------------------
       NWT REQUIRED            6 OUTER ITERATIONS 
       AND A TOTAL OF          9 INNER ITERATIONS.
    ------------------------------------------------

 NO OUTPUT CONTROL FOR STRESS PERIOD   10   TIME STEP   19
 
 SOLVING FOR HEAD 
                                                   Max.-Head-Change                         Max.-Flux-Residual
  Residual-Control   Outer-Iter.   Inner-Iter.     Column Row Layer    Maximum-Head-Change  Column Row Layer    Maximum-Flux-Residual          L2-NORM 
          0                 1           2            63    1     1      -0.1472499685E+00      63    1    1        -0.5122609564E-02      0.6800719084E-01
          0                 2           2            63    1     1       0.1300518928E-01      63    1    1         0.5120156305E-03      0.6792119489E-02
          0                 3           2            62    1     1      -0.1060620728E-02      63    4    1         0.6661732929E-04      0.6866251356E-03
          0                 4           1            62    1     1       0.7908542775E-04      63    4    1        -0.7412093520E-05      0.6148347421E-04
          0                 5           1            62    1     1      -0.5276575197E-05      64    4    1         0.6131525456E-06      0.4660167357E-05
          0                 6           1            62    1     1       0.3089599812E-06      64    4    1        -0.4063183390E-07      0.2956587810E-06

    ------------------------------------------------
       NWT REQUIRED            6 OUTER ITERATIONS 
       AND A TOTAL OF          9 INNER ITERATIONS.
    ------------------------------------------------

 NO OUTPUT CONTROL FOR STRESS PERIOD   10   TIME STEP   20
 
 SOLVING FOR HEAD 
                                                   Max.-Head-Change                         Max.-Flux-Residual
  Residual-Control   Outer-Iter.   Inner-Iter.     Column Row Layer    Maximum-Head-Change  Column Row Layer    Maximum-Flux-Residual          L2-NORM 
          0                 1           2            63    1     1      -0.1600082045E+00      63    1    1        -0.5051685012E-02      0.6719724847E-01
          0                 2           2            63    1     1       0.1407749057E-01      63    1    1         0.5049261452E-03      0.6707335761E-02
          0                 3           2            63    1     1      -0.1140159591E-02      62    4    1         0.6494309430E-04      0.6798578991E-03
          0                 4           1            63    1     1       0.8406310961E-04      63    4    1        -0.7312868338E-05      0.6122514510E-04
          0                 5           1            62    1     1      -0.5552710368E-05      64    4    1         0.6142657227E-06      0.4663304662E-05
          0                 6           1            62    1     1       0.3233442852E-06      64    4    1        -0.4125669939E-07      0.2971532254E-06

    ------------------------------------------------
       NWT REQUIRED            6 OUTER ITERATIONS 
       AND A TOTAL OF          9 INNER ITERATIONS.
    ------------------------------------------------

 NO OUTPUT CONTROL FOR STRESS PERIOD   10   TIME STEP   21
 
 SOLVING FOR HEAD 
                                                   Max.-Head-Change                         Max.-Flux-Residual
  Residual-Control   Outer-Iter.   Inner-Iter.     Column Row Layer    Maximum-Head-Change  Column Row Layer    Maximum-Flux-Residual          L2-NORM 
          0                 1           3            63    1     1      -0.1740727574E+00      64    3    1        -0.5010714530E-02      0.6647092341E-01
          0                 2           2            63    1     1       0.1526075110E-01      64    3    1         0.5007354590E-03      0.6632931969E-02
          0                 3           2            63    1     1      -0.1229064194E-02      64    4    1         0.6354931889E-04      0.6739016518E-03
          0                 4           1            63    1     1       0.8998322255E-04      64    4    1        -0.7360696470E-05      0.6100211055E-04
          0                 5           1            63    1     1      -0.5886790626E-05      64    4    1         0.6283109037E-06      0.4665180633E-05
          0                 6           1            63    1     1       0.3390368465E-06      64    4    1        -0.4244129315E-07      0.2984118290E-06

    ------------------------------------------------
       NWT REQUIRED            6 OUTER ITERATIONS 
       AND A TOTAL OF         10 INNER ITERATIONS.
    ------------------------------------------------

 NO OUTPUT CONTROL FOR STRESS PERIOD   10   TIME STEP   22
 
 SOLVING FOR HEAD 
                                                   Max.-Head-Change                         Max.-Flux-Residual
  Residual-Control   Outer-Iter.   Inner-Iter.     Column Row Layer    Maximum-Head-Change  Column Row Layer    Maximum-Flux-Residual          L2-NORM 
          0                 1           3            64    1     1      -0.1889078207E+00      63    3    1        -0.4970277159E-02      0.6578504478E-01
          0                 2           2            63    1     1       0.1648131722E-01      63    3    1         0.4965332656E-03      0.6562728968E-02
          0                 3           2            63    1     1      -0.1320752591E-02      64    4    1         0.6363253934E-04      0.6680340768E-03
          0                 4           1            63    1     1       0.9608163375E-04      64    4    1        -0.7406937311E-05      0.6075501565E-04
          0                 5           1            63    1     1      -0.6236574015E-05      64    4    1         0.6361800207E-06      0.4661425309E-05
          0                 6           1            63    1     1       0.3569060880E-06      64    4    1        -0.4322879121E-07      0.2991609244E-06

    ------------------------------------------------
       NWT REQUIRED            6 OUTER ITERATIONS 
       AND A TOTAL OF         10 INNER ITERATIONS.
    ------------------------------------------------

 NO OUTPUT CONTROL FOR STRESS PERIOD   10   TIME STEP   23
 
 SOLVING FOR HEAD 
                                                   Max.-Head-Change                         Max.-Flux-Residual
  Residual-Control   Outer-Iter.   Inner-Iter.     Column Row Layer    Maximum-Head-Change  Column Row Layer    Maximum-Flux-Residual          L2-NORM 
          0                 1           3            64    1     1      -0.2042825304E+00      64    3    1        -0.4884999153E-02      0.6510048318E-01
          0                 2           2            64    1     1       0.1775078111E-01      64    3    1         0.4880023860E-03      0.6495963999E-02
          0                 3           2            63    1     1      -0.1412368868E-02      64    4    1         0.6367685688E-04      0.6625424333E-03
          0                 4           1            63    1     1       0.1020800905E-03      64    4    1        -0.7437216611E-05      0.6051289055E-04
          0                 5           1            63    1     1      -0.6570506809E-05      64    4    1         0.6419063343E-06      0.4653125391E-05
          0                 6           1            63    1     1       0.3735744134E-06      64    4    1        -0.4382488861E-07      0.2993893423E-06

    ------------------------------------------------
       NWT REQUIRED            6 OUTER ITERATIONS 
       AND A TOTAL OF         10 INNER ITERATIONS.
    ------------------------------------------------

 NO OUTPUT CONTROL FOR STRESS PERIOD   10   TIME STEP   24
 
 SOLVING FOR HEAD 
                                                   Max.-Head-Change                         Max.-Flux-Residual
  Residual-Control   Outer-Iter.   Inner-Iter.     Column Row Layer    Maximum-Head-Change  Column Row Layer    Maximum-Flux-Residual          L2-NORM 
          0                 1           3            64    1     1      -0.2203734028E+00      64    3    1        -0.4794612058E-02      0.6439159138E-01
          0                 2           2            64    1     1       0.1907806569E-01      64    3    1         0.4789212529E-03      0.6427688411E-02
          0                 3           2            64    1     1      -0.1508260533E-02      64    4    1         0.6303569119E-04      0.6568283397E-03
          0                 4           2            63    1     1       0.1081304309E-03      64    4    1        -0.7408333317E-05      0.6022559036E-04
          0                 5           1            63    1     1      -0.6953241306E-05      65    4    1         0.6443732641E-06      0.4709951291E-05
          0                 6           1            63    1     1       0.3931157402E-06      64    4    1        -0.4417437616E-07      0.3041247739E-06

    ------------------------------------------------
       NWT REQUIRED            6 OUTER ITERATIONS 
       AND A TOTAL OF         11 INNER ITERATIONS.
    ------------------------------------------------

 NO OUTPUT CONTROL FOR STRESS PERIOD   10   TIME STEP   25
 
 SOLVING FOR HEAD 
                                                   Max.-Head-Change                         Max.-Flux-Residual
  Residual-Control   Outer-Iter.   Inner-Iter.     Column Row Layer    Maximum-Head-Change  Column Row Layer    Maximum-Flux-Residual          L2-NORM 
          0                 1           3            64    1     1      -0.2373277133E+00      64    1    1        -0.4701710473E-02      0.6366526393E-01
          0                 2           2            64    1     1       0.2047305582E-01      64    1    1         0.4696900754E-03      0.6355836568E-02
          0                 3           2            64    1     1      -0.1610100877E-02      65    4    1         0.6229667317E-04      0.6506345504E-03
          0                 4           2            64    1     1       0.1144767567E-03      65    4    1        -0.7379604098E-05      0.5987644408E-04
          0                 5           1            63    1     1      -0.7294773993E-05      65    4    1         0.6455830128E-06      0.4702931261E-05
          0                 6           1            63    1     1       0.4095867232E-06      64    4    1        -0.4435666412E-07      0.3041966632E-06

    ------------------------------------------------
       NWT REQUIRED            6 OUTER ITERATIONS 
       AND A TOTAL OF         11 INNER ITERATIONS.
    ------------------------------------------------

 NO OUTPUT CONTROL FOR STRESS PERIOD   10   TIME STEP   26
 
 SOLVING FOR HEAD 
                                                   Max.-Head-Change                         Max.-Flux-Residual
  Residual-Control   Outer-Iter.   Inner-Iter.     Column Row Layer    Maximum-Head-Change  Column Row Layer    Maximum-Flux-Residual          L2-NORM 
          0                 1           3            65    1     1      -0.2552523860E+00      64    1    1        -0.4604391110E-02      0.6293088515E-01
          0                 2           2            64    1     1       0.2194170277E-01      64    1    1         0.4599040697E-03      0.6281857849E-02
          0                 3           2            64    1     1      -0.1716754098E-02      65    4    1         0.6154827311E-04      0.6439063518E-03
          0                 4           2            64    1     1       0.1212502003E-03      65    4    1        -0.7330810641E-05      0.5945138925E-04
          0                 5           1            64    1     1      -0.7649701372E-05      65    4    1         0.6446137313E-06      0.4688565309E-05
          0                 6           1            63    1     1       0.4263335792E-06      64    4    1        -0.4439297818E-07      0.3035895686E-06

    ------------------------------------------------
       NWT REQUIRED            6 OUTER ITERATIONS 
       AND A TOTAL OF         11 INNER ITERATIONS.
    ------------------------------------------------

 NO OUTPUT CONTROL FOR STRESS PERIOD   10   TIME STEP   27
 
 SOLVING FOR HEAD 
                                                   Max.-Head-Change                         Max.-Flux-Residual
  Residual-Control   Outer-Iter.   Inner-Iter.     Column Row Layer    Maximum-Head-Change  Column Row Layer    Maximum-Flux-Residual          L2-NORM 
          0                 1           3            65    1     1      -0.2749566558E+00      65    1    1        -0.4503665342E-02      0.6221435209E-01
          0                 2           2            65    1     1       0.2353948383E-01      65    1    1         0.4498562703E-03      0.6205665195E-02
          0                 3           2            64    7     1      -0.1829901272E-02      64    4    1         0.6032486749E-04      0.6364147922E-03
          0                 4           2            64    7     1       0.1284160122E-03      64    4    1        -0.7210837556E-05      0.5892165279E-04
          0                 5           1            64    1     1      -0.8039362557E-05      66    4    1         0.6373279646E-06      0.4664543931E-05
          0                 6           1            63    1     1       0.4433226138E-06      66    4    1        -0.4460221881E-07      0.3019872754E-06

    ------------------------------------------------
       NWT REQUIRED            6 OUTER ITERATIONS 
       AND A TOTAL OF         11 INNER ITERATIONS.
    ------------------------------------------------

 NO OUTPUT CONTROL FOR STRESS PERIOD   10   TIME STEP   28
 
 SOLVING FOR HEAD 
                                                   Max.-Head-Change                         Max.-Flux-Residual
  Residual-Control   Outer-Iter.   Inner-Iter.     Column Row Layer    Maximum-Head-Change  Column Row Layer    Maximum-Flux-Residual          L2-NORM 
          0                 1           3            65    1     1      -0.2957724253E+00      65    1    1        -0.4411195232E-02      0.6151978812E-01
          0                 2           3            65    1     1       0.2525934644E-01      65    1    1         0.4405531547E-03      0.6132125864E-02
          0                 3           2            65    1     1      -0.1954625411E-02      65    4    1         0.5909421391E-04      0.6292479608E-03
          0                 4           2            64    1     1       0.1360068368E-03      65    4    1        -0.7125757193E-05      0.5840767661E-04
          0                 5           1            64    1     1      -0.8449647888E-05      65    4    1         0.6334132863E-06      0.4640357976E-05
          0                 6           1            63    1     1       0.4614110034E-06      66    4    1        -0.4449961821E-07      0.3001066214E-06

    ------------------------------------------------
       NWT REQUIRED            6 OUTER ITERATIONS 
       AND A TOTAL OF         12 INNER ITERATIONS.
    ------------------------------------------------

 NO OUTPUT CONTROL FOR STRESS PERIOD   10   TIME STEP   29
 
 SOLVING FOR HEAD 
                                                   Max.-Head-Change                         Max.-Flux-Residual
  Residual-Control   Outer-Iter.   Inner-Iter.     Column Row Layer    Maximum-Head-Change  Column Row Layer    Maximum-Flux-Residual          L2-NORM 
          0                 1           3            65    1     1      -0.3178017781E+00      65    1    1        -0.4314571779E-02      0.6085705844E-01
          0                 2           3            65    1     1       0.2706841114E-01      65    1    1         0.4308371907E-03      0.6061246038E-02
          0                 3           2            65    7     1      -0.2086280851E-02      65    4    1         0.5813815284E-04      0.6219427533E-03
          0                 4           2            65    7     1       0.1442524304E-03      65    4    1        -0.7038197467E-05      0.5784424785E-04
          0                 5           1            64    1     1      -0.8871925223E-05      65    4    1         0.6281690865E-06      0.4610206544E-05
          0                 6           1            63    1     1       0.4795810153E-06      66    4    1        -0.4396718190E-07      0.2974059179E-06

    ------------------------------------------------
       NWT REQUIRED            6 OUTER ITERATIONS 
       AND A TOTAL OF         12 INNER ITERATIONS.
    ------------------------------------------------

 OUTPUT CONTROL FOR STRESS PERIOD   10   TIME STEP   30
    PRINT HEAD FOR ALL LAYERS
    SAVE HEAD FOR ALL LAYERS
    PRINT BUDGET
    SAVE BUDGET

            WELLS   PERIOD   10   STEP  30
 WELL      1   LAYER   1   ROW     3   COL    50   RATE   -0.730002    
 WELL      2   LAYER   1   ROW     5   COL    55   RATE   -0.730002    

  HEAD DEP BOUNDS   PERIOD   10   STEP    30
 BOUNDARY      1   LAYER   1   ROW     1   COL   100   RATE   -3.542885E-02
 BOUNDARY      2   LAYER   1   ROW     2   COL   100   RATE   -3.550458E-02
 BOUNDARY      3   LAYER   1   ROW     3   COL   100   RATE   -3.541332E-02
 BOUNDARY      4   LAYER   1   ROW     4   COL   100   RATE   -2.820701E-02
 BOUNDARY      5   LAYER   1   ROW     5   COL   100   RATE   -3.541332E-02
 BOUNDARY      6   LAYER   1   ROW     6   COL   100   RATE   -3.550458E-02
 BOUNDARY      7   LAYER   1   ROW     7   COL   100   RATE   -3.542885E-02



 STREAM LISTING     PERIOD     10   STEP       30

 LAYER ROW COL. STREAM  RCH.   FLOW INTO    STREAM     FLOW OUT OF   OVRLND.    DIRECT     STREAM      STREAM      STREAM     STREAM  STREAMBED   FLOW TO   CHNG. UNSAT. 
                SEG.NO.  NO.   STRM. RCH.    LOSS       STRM. RCH.   RUNOFF     PRECIP       ET         HEAD        DEPTH      WIDTH  CONDCTNC.   WAT. TAB.

   1    4    1     1     1    1.1340E+01  3.2798E-03   1.1337E+01  0.000E+00  0.000E+00  0.000E+00  1.42414E+02  2.564E+00  4.880E+00  1.070E-03  3.653E-03 -3.731E-04
   1    4    2     1     2    1.1337E+01  3.2791E-03   1.1333E+01  0.000E+00  0.000E+00  0.000E+00  1.42114E+02  2.564E+00  4.880E+00  1.070E-03  3.651E-03 -3.719E-04
   1    4    3     1     3    1.1333E+01  3.2783E-03   1.1330E+01  0.000E+00  0.000E+00  0.000E+00  1.41813E+02  2.563E+00  4.879E+00  1.070E-03  3.649E-03 -3.702E-04
   1    4    4     1     4    1.1330E+01  3.2775E-03   1.1327E+01  0.000E+00  0.000E+00  0.000E+00  1.41513E+02  2.563E+00  4.879E+00  1.070E-03  3.646E-03 -3.682E-04
   1    4    5     1     5    1.1327E+01  3.2768E-03   1.1324E+01  0.000E+00  0.000E+00  0.000E+00  1.41213E+02  2.563E+00  4.879E+00  1.070E-03  3.642E-03 -3.656E-04
   1    4    6     1     6    1.1324E+01  3.2760E-03   1.1320E+01  0.000E+00  0.000E+00  0.000E+00  1.40912E+02  2.562E+00  4.878E+00  1.070E-03  3.639E-03 -3.627E-04
   1    4    7     1     7    1.1320E+01  3.2752E-03   1.1317E+01  0.000E+00  0.000E+00  0.000E+00  1.40612E+02  2.562E+00  4.878E+00  1.070E-03  3.634E-03 -3.592E-04
   1    4    8     1     8    1.1317E+01  3.2744E-03   1.1314E+01  0.000E+00  0.000E+00  0.000E+00  1.40312E+02  2.562E+00  4.877E+00  1.070E-03  3.630E-03 -3.554E-04
   1    4    9     1     9    1.1314E+01  3.2737E-03   1.1311E+01  0.000E+00  0.000E+00  0.000E+00  1.40011E+02  2.561E+00  4.877E+00  1.069E-03  3.625E-03 -3.511E-04
   1    4   10     1    10    1.1311E+01  3.2729E-03   1.1307E+01  0.000E+00  0.000E+00  0.000E+00  1.39711E+02  2.561E+00  4.876E+00  1.069E-03  3.619E-03 -3.463E-04
   1    4   11     1    11    1.1307E+01  3.2721E-03   1.1304E+01  0.000E+00  0.000E+00  0.000E+00  1.39410E+02  2.560E+00  4.876E+00  1.069E-03  3.613E-03 -3.410E-04
   1    4   12     1    12    1.1304E+01  3.2714E-03   1.1301E+01  0.000E+00  0.000E+00  0.000E+00  1.39110E+02  2.560E+00  4.875E+00  1.069E-03  3.607E-03 -3.353E-04
   1    4   13     1    13    1.1301E+01  3.2706E-03   1.1297E+01  0.000E+00  0.000E+00  0.000E+00  1.38810E+02  2.560E+00  4.875E+00  1.069E-03  3.600E-03 -3.291E-04
   1    4   14     1    14    1.1297E+01  3.2698E-03   1.1294E+01  0.000E+00  0.000E+00  0.000E+00  1.38509E+02  2.559E+00  4.875E+00  1.069E-03  3.592E-03 -3.224E-04
   1    4   15     1    15    1.1294E+01  3.2690E-03   1.1291E+01  0.000E+00  0.000E+00  0.000E+00  1.38209E+02  2.559E+00  4.874E+00  1.069E-03  3.584E-03 -3.152E-04
   1    4   16     1    16    1.1291E+01  3.2683E-03   1.1288E+01  0.000E+00  0.000E+00  0.000E+00  1.37909E+02  2.559E+00  4.874E+00  1.069E-03  3.576E-03 -3.075E-04
   1    4   17     1    17    1.1288E+01  3.2675E-03   1.1284E+01  0.000E+00  0.000E+00  0.000E+00  1.37608E+02  2.558E+00  4.873E+00  1.068E-03  3.567E-03 -2.993E-04
   1    4   18     1    18    1.1284E+01  3.2667E-03   1.1281E+01  0.000E+00  0.000E+00  0.000E+00  1.37308E+02  2.558E+00  4.873E+00  1.068E-03  3.557E-03 -2.905E-04
   1    4   19     1    19    1.1281E+01  3.2660E-03   1.1278E+01  0.000E+00  0.000E+00  0.000E+00  1.37007E+02  2.557E+00  4.872E+00  1.068E-03  3.547E-03 -2.812E-04
   1    4   20     1    20    1.1278E+01  3.2652E-03   1.1275E+01  0.000E+00  0.000E+00  0.000E+00  1.36707E+02  2.557E+00  4.872E+00  1.068E-03  3.537E-03 -2.713E-04
   1    4   21     1    21    1.1275E+01  3.2644E-03   1.1271E+01  0.000E+00  0.000E+00  0.000E+00  1.36407E+02  2.557E+00  4.871E+00  1.068E-03  3.525E-03 -2.609E-04
   1    4   22     1    22    1.1271E+01  3.2637E-03   1.1268E+01  0.000E+00  0.000E+00  0.000E+00  1.36106E+02  2.556E+00  4.871E+00  1.068E-03  3.513E-03 -2.498E-04
   1    4   23     1    23    1.1268E+01  3.2629E-03   1.1265E+01  0.000E+00  0.000E+00  0.000E+00  1.35806E+02  2.556E+00  4.871E+00  1.068E-03  3.501E-03 -2.382E-04
   1    4   24     1    24    1.1265E+01  3.2621E-03   1.1261E+01  0.000E+00  0.000E+00  0.000E+00  1.35506E+02  2.556E+00  4.870E+00  1.068E-03  3.492E-03 -2.302E-04
   1    4   25     1    25    1.1261E+01  3.2614E-03   1.1258E+01  0.000E+00  0.000E+00  0.000E+00  1.35205E+02  2.555E+00  4.870E+00  1.067E-03  3.489E-03 -2.274E-04
   1    4   26     1    26    1.1258E+01  3.2606E-03   1.1255E+01  0.000E+00  0.000E+00  0.000E+00  1.34905E+02  2.555E+00  4.869E+00  1.067E-03  3.486E-03 -2.252E-04
   1    4   27     1    27    1.1255E+01  3.2598E-03   1.1252E+01  0.000E+00  0.000E+00  0.000E+00  1.34604E+02  2.554E+00  4.869E+00  1.067E-03  3.490E-03 -2.300E-04
   1    4   28     1    28    1.1252E+01  3.2591E-03   1.1248E+01  0.000E+00  0.000E+00  0.000E+00  1.34304E+02  2.554E+00  4.868E+00  1.067E-03  3.514E-03 -2.547E-04
   1    4   29     1    29    1.1248E+01  3.2583E-03   1.1245E+01  0.000E+00  0.000E+00  0.000E+00  1.34004E+02  2.554E+00  4.868E+00  1.067E-03  3.524E-03 -2.656E-04
   1    4   30     1    30    1.1245E+01  3.2575E-03   1.1242E+01  0.000E+00  0.000E+00  0.000E+00  1.33703E+02  2.553E+00  4.867E+00  1.067E-03  3.513E-03 -2.550E-04
   1    4   31     1    31    1.1242E+01  3.2567E-03   1.1239E+01  0.000E+00  0.000E+00  0.000E+00  1.33403E+02  2.553E+00  4.867E+00  1.067E-03  3.508E-03 -2.515E-04
   1    4   32     1    32    1.1239E+01  3.2560E-03   1.1235E+01  0.000E+00  0.000E+00  0.000E+00  1.33103E+02  2.553E+00  4.867E+00  1.067E-03  3.505E-03 -2.488E-04
   1    4   33     1    33    1.1235E+01  3.2552E-03   1.1232E+01  0.000E+00  0.000E+00  0.000E+00  1.32802E+02  2.552E+00  4.866E+00  1.067E-03  3.501E-03 -2.451E-04
   1    4   34     1    34    1.1232E+01  3.2544E-03   1.1229E+01  0.000E+00  0.000E+00  0.000E+00  1.32502E+02  2.552E+00  4.866E+00  1.066E-03  3.484E-03 -2.282E-04
   1    4   35     1    35    1.1229E+01  3.2537E-03   1.1226E+01  0.000E+00  0.000E+00  0.000E+00  1.32201E+02  2.551E+00  4.865E+00  1.066E-03  3.470E-03 -2.152E-04
   1    4   36     1    36    1.1226E+01  3.2529E-03   1.1222E+01  0.000E+00  0.000E+00  0.000E+00  1.31901E+02  2.551E+00  4.865E+00  1.066E-03  3.498E-03 -2.433E-04
   1    4   37     1    37    1.1222E+01  3.2521E-03   1.1219E+01  0.000E+00  0.000E+00  0.000E+00  1.31601E+02  2.551E+00  4.864E+00  1.066E-03  3.485E-03 -2.309E-04
   1    4   38     1    38    1.1219E+01  3.2514E-03   1.1216E+01  0.000E+00  0.000E+00  0.000E+00  1.31300E+02  2.550E+00  4.864E+00  1.066E-03  3.472E-03 -2.194E-04
   1    4   39     1    39    1.1216E+01  3.2506E-03   1.1213E+01  0.000E+00  0.000E+00  0.000E+00  1.31000E+02  2.550E+00  4.863E+00  1.066E-03  3.463E-03 -2.106E-04
   1    4   40     1    40    1.1213E+01  3.2498E-03   1.1209E+01  0.000E+00  0.000E+00  0.000E+00  1.30700E+02  2.550E+00  4.863E+00  1.066E-03  3.498E-03 -2.469E-04
   1    4   41     1    41    1.1209E+01  3.2491E-03   1.1206E+01  0.000E+00  0.000E+00  0.000E+00  1.30399E+02  2.549E+00  4.863E+00  1.066E-03  3.496E-03 -2.458E-04
   1    4   42     1    42    1.1206E+01  3.2483E-03   1.1203E+01  0.000E+00  0.000E+00  0.000E+00  1.30099E+02  2.549E+00  4.862E+00  1.065E-03  3.525E-03 -2.755E-04
   1    4   43     1    43    1.1203E+01  3.2475E-03   1.1200E+01  0.000E+00  0.000E+00  0.000E+00  1.29799E+02  2.549E+00  4.862E+00  1.065E-03  3.541E-03 -2.907E-04
   1    4   44     1    44    1.1200E+01  3.2468E-03   1.1196E+01  0.000E+00  0.000E+00  0.000E+00  1.29498E+02  2.548E+00  4.861E+00  1.065E-03  3.557E-03 -3.079E-04
   1    4   45     1    45    1.1196E+01  3.2460E-03   1.1193E+01  0.000E+00  0.000E+00  0.000E+00  1.29198E+02  2.548E+00  4.861E+00  1.065E-03  3.581E-03 -3.324E-04
   1    4   46     1    46    1.1193E+01  3.2453E-03   1.1190E+01  0.000E+00  0.000E+00  0.000E+00  1.28897E+02  2.547E+00  4.860E+00  1.065E-03  3.612E-03 -3.643E-04
   1    4   47     1    47    1.1190E+01  3.2445E-03   1.1187E+01  0.000E+00  0.000E+00  0.000E+00  1.28597E+02  2.547E+00  4.860E+00  1.065E-03  3.650E-03 -4.028E-04
   1    4   48     1    48    1.1187E+01  3.2437E-03   1.1183E+01  0.000E+00  0.000E+00  0.000E+00  1.28297E+02  2.547E+00  4.859E+00  1.065E-03  3.692E-03 -4.461E-04
   1    4   49     1    49    1.1183E+01  3.2430E-03   1.1180E+01  0.000E+00  0.000E+00  0.000E+00  1.27996E+02  2.546E+00  4.859E+00  1.065E-03  3.734E-03 -4.882E-04
   1    4   50     1    50    1.1180E+01  3.2422E-03   1.1177E+01  0.000E+00  0.000E+00  0.000E+00  1.27696E+02  2.546E+00  4.859E+00  1.064E-03  3.759E-03 -5.145E-04
   1    4   51     1    51    1.1177E+01  3.2414E-03   1.1174E+01  0.000E+00  0.000E+00  0.000E+00  1.27396E+02  2.546E+00  4.858E+00  1.064E-03  3.820E-03 -5.756E-04
   1    4   52     1    52    1.1174E+01  3.2407E-03   1.1170E+01  0.000E+00  0.000E+00  0.000E+00  1.27095E+02  2.545E+00  4.858E+00  1.064E-03  3.842E-03 -5.988E-04
   1    4   53     1    53    1.1170E+01  3.2399E-03   1.1167E+01  0.000E+00  0.000E+00  0.000E+00  1.26795E+02  2.545E+00  4.857E+00  1.064E-03  3.828E-03 -5.855E-04
   1    4   54     1    54    1.1167E+01  3.2391E-03   1.1164E+01  0.000E+00  0.000E+00  0.000E+00  1.26494E+02  2.544E+00  4.857E+00  1.064E-03  3.777E-03 -5.357E-04
   1    4   55     1    55    1.1164E+01  3.2384E-03   1.1161E+01  0.000E+00  0.000E+00  0.000E+00  1.26194E+02  2.544E+00  4.856E+00  1.064E-03  3.688E-03 -4.468E-04
   1    4   56     1    56    1.1161E+01  3.2376E-03   1.1158E+01  0.000E+00  0.000E+00  0.000E+00  1.25894E+02  2.544E+00  4.856E+00  1.064E-03  3.646E-03 -4.058E-04
   1    4   57     1    57    1.1158E+01  3.2368E-03   1.1154E+01  0.000E+00  0.000E+00  0.000E+00  1.25593E+02  2.543E+00  4.855E+00  1.064E-03  3.602E-03 -3.626E-04
   1    4   58     1    58    1.1154E+01  3.2361E-03   1.1151E+01  0.000E+00  0.000E+00  0.000E+00  1.25293E+02  2.543E+00  4.855E+00  1.063E-03  3.555E-03 -3.164E-04
   1    4   59     1    59    1.1151E+01  3.2353E-03   1.1148E+01  0.000E+00  0.000E+00  0.000E+00  1.24993E+02  2.543E+00  4.855E+00  1.063E-03  3.512E-03 -2.742E-04
   1    4   60     1    60    1.1148E+01  3.2346E-03   1.1145E+01  0.000E+00  0.000E+00  0.000E+00  1.24692E+02  2.542E+00  4.854E+00  1.063E-03  3.475E-03 -2.381E-04
   1    4   61     1    61    1.1145E+01  3.2338E-03   1.1141E+01  0.000E+00  0.000E+00  0.000E+00  1.24392E+02  2.542E+00  4.854E+00  1.063E-03  3.445E-03 -2.090E-04
   1    4   62     1    62    1.1141E+01  3.2330E-03   1.1138E+01  0.000E+00  0.000E+00  0.000E+00  1.24091E+02  2.541E+00  4.853E+00  1.063E-03  3.422E-03 -1.867E-04
   1    4   63     1    63    1.1138E+01  3.2323E-03   1.1135E+01  0.000E+00  0.000E+00  0.000E+00  1.23791E+02  2.541E+00  4.853E+00  1.063E-03  3.406E-03 -1.719E-04
   1    4   64     1    64    1.1135E+01  3.2315E-03   1.1132E+01  0.000E+00  0.000E+00  0.000E+00  1.23491E+02  2.541E+00  4.852E+00  1.063E-03  3.368E-03 -1.346E-04
   1    4   65     1    65    1.1132E+01  3.2307E-03   1.1128E+01  0.000E+00  0.000E+00  0.000E+00  1.23190E+02  2.540E+00  4.852E+00  1.063E-03  3.362E-03 -1.299E-04
   1    4   66     1    66    1.1128E+01  3.2300E-03   1.1125E+01  0.000E+00  0.000E+00  0.000E+00  1.22890E+02  2.540E+00  4.851E+00  1.062E-03  3.326E-03 -9.414E-05
   1    4   67     1    67    1.1125E+01  3.2292E-03   1.1122E+01  0.000E+00  0.000E+00  0.000E+00  1.22590E+02  2.540E+00  4.851E+00  1.062E-03  3.328E-03 -9.720E-05
   1    4   68     1    68    1.1122E+01  3.2285E-03   1.1119E+01  0.000E+00  0.000E+00  0.000E+00  1.22289E+02  2.539E+00  4.851E+00  1.062E-03  3.333E-03 -1.029E-04
   1    4   69     1    69    1.1119E+01  3.2277E-03   1.1115E+01  0.000E+00  0.000E+00  0.000E+00  1.21989E+02  2.539E+00  4.850E+00  1.062E-03  3.330E-03 -1.015E-04
   1    4   70     1    70    1.1115E+01  3.2269E-03   1.1112E+01  0.000E+00  0.000E+00  0.000E+00  1.21688E+02  2.538E+00  4.850E+00  1.062E-03  3.300E-03 -7.295E-05
   1    4   71     1    71    1.1112E+01  3.2262E-03   1.1109E+01  0.000E+00  0.000E+00  0.000E+00  1.21388E+02  2.538E+00  4.849E+00  1.062E-03  3.290E-03 -6.394E-05
   1    4   72     1    72    1.1109E+01  3.2254E-03   1.1106E+01  0.000E+00  0.000E+00  0.000E+00  1.21088E+02  2.538E+00  4.849E+00  1.062E-03  3.288E-03 -6.289E-05
   1    4   73     1    73    1.1106E+01  3.2246E-03   1.1103E+01  0.000E+00  0.000E+00  0.000E+00  1.20787E+02  2.537E+00  4.848E+00  1.062E-03  3.283E-03 -5.819E-05
   1    4   74     1    74    1.1103E+01  3.2239E-03   1.1099E+01  0.000E+00  0.000E+00  0.000E+00  1.20487E+02  2.537E+00  4.848E+00  1.062E-03  3.272E-03 -4.830E-05
   1    4   75     1    75    1.1099E+01  3.2231E-03   1.1096E+01  0.000E+00  0.000E+00  0.000E+00  1.20187E+02  2.537E+00  4.847E+00  1.061E-03  3.265E-03 -4.225E-05
   1    4   76     1    76    1.1096E+01  3.2224E-03   1.1093E+01  0.000E+00  0.000E+00  0.000E+00  1.19886E+02  2.536E+00  4.847E+00  1.061E-03  3.265E-03 -4.238E-05
   1    4   77     1    77    1.1093E+01  3.2216E-03   1.1090E+01  0.000E+00  0.000E+00  0.000E+00  1.19586E+02  2.536E+00  4.847E+00  1.061E-03  3.255E-03 -3.335E-05
   1    4   78     1    78    1.1090E+01  3.2208E-03   1.1086E+01  0.000E+00  0.000E+00  0.000E+00  1.19286E+02  2.536E+00  4.846E+00  1.061E-03  3.262E-03 -4.119E-05
   1    4   79     1    79    1.1086E+01  3.2201E-03   1.1083E+01  0.000E+00  0.000E+00  0.000E+00  1.18985E+02  2.535E+00  4.846E+00  1.061E-03  3.259E-03 -3.885E-05
   1    4   80     1    80    1.1083E+01  3.2193E-03   1.1080E+01  0.000E+00  0.000E+00  0.000E+00  1.18685E+02  2.535E+00  4.845E+00  1.061E-03  3.257E-03 -3.803E-05
   1    4   81     1    81    1.1080E+01  3.2186E-03   1.1077E+01  0.000E+00  0.000E+00  0.000E+00  1.18384E+02  2.534E+00  4.845E+00  1.061E-03  3.258E-03 -3.941E-05
   1    4   82     1    82    1.1077E+01  3.2178E-03   1.1074E+01  0.000E+00  0.000E+00  0.000E+00  1.18084E+02  2.534E+00  4.844E+00  1.061E-03  3.261E-03 -4.298E-05
   1    4   83     1    83    1.1074E+01  3.2170E-03   1.1070E+01  0.000E+00  0.000E+00  0.000E+00  1.17784E+02  2.534E+00  4.844E+00  1.060E-03  3.266E-03 -4.869E-05
   1    4   84     1    84    1.1070E+01  3.2163E-03   1.1067E+01  0.000E+00  0.000E+00  0.000E+00  1.17483E+02  2.533E+00  4.843E+00  1.060E-03  3.273E-03 -5.650E-05
   1    4   85     1    85    1.1067E+01  3.2155E-03   1.1064E+01  0.000E+00  0.000E+00  0.000E+00  1.17183E+02  2.533E+00  4.843E+00  1.060E-03  3.282E-03 -6.641E-05
   1    4   86     1    86    1.1064E+01  3.2148E-03   1.1061E+01  0.000E+00  0.000E+00  0.000E+00  1.16883E+02  2.533E+00  4.843E+00  1.060E-03  3.293E-03 -7.844E-05
   1    4   87     1    87    1.1061E+01  3.2140E-03   1.1058E+01  0.000E+00  0.000E+00  0.000E+00  1.16582E+02  2.532E+00  4.842E+00  1.060E-03  3.307E-03 -9.260E-05
   1    4   88     1    88    1.1058E+01  3.2132E-03   1.1054E+01  0.000E+00  0.000E+00  0.000E+00  1.16282E+02  2.532E+00  4.842E+00  1.060E-03  3.322E-03 -1.089E-04
   1    4   89     1    89    1.1054E+01  3.2125E-03   1.1051E+01  0.000E+00  0.000E+00  0.000E+00  1.15981E+02  2.531E+00  4.841E+00  1.060E-03  3.340E-03 -1.274E-04
   1    4   90     1    90    1.1051E+01  3.2117E-03   1.1048E+01  0.000E+00  0.000E+00  0.000E+00  1.15681E+02  2.531E+00  4.841E+00  1.060E-03  3.360E-03 -1.481E-04
   1    4   91     1    91    1.1048E+01  3.2110E-03   1.1045E+01  0.000E+00  0.000E+00  0.000E+00  1.15381E+02  2.531E+00  4.840E+00  1.059E-03  3.393E-03 -1.818E-04
   1    4   92     1    92    1.1045E+01  3.2102E-03   1.1041E+01  0.000E+00  0.000E+00  0.000E+00  1.15080E+02  2.530E+00  4.840E+00  1.059E-03  3.428E-03 -2.181E-04
   1    4   93     1    93    1.1041E+01  3.2094E-03   1.1038E+01  0.000E+00  0.000E+00  0.000E+00  1.14780E+02  2.530E+00  4.839E+00  1.059E-03  3.447E-03 -2.380E-04
   1    4   94     1    94    1.1038E+01  3.2087E-03   1.1035E+01  0.000E+00  0.000E+00  0.000E+00  1.14480E+02  2.530E+00  4.839E+00  1.059E-03  3.460E-03 -2.516E-04
   1    4   95     1    95    1.1035E+01  3.2079E-03   1.1032E+01  0.000E+00  0.000E+00  0.000E+00  1.14179E+02  2.529E+00  4.839E+00  1.059E-03  3.474E-03 -2.662E-04
   1    4   96     1    96    1.1032E+01  3.2072E-03   1.1029E+01  0.000E+00  0.000E+00  0.000E+00  1.13879E+02  2.529E+00  4.838E+00  1.059E-03  3.504E-03 -2.965E-04
   1    4   97     1    97    1.1029E+01  3.2064E-03   1.1025E+01  0.000E+00  0.000E+00  0.000E+00  1.13578E+02  2.528E+00  4.838E+00  1.059E-03  3.535E-03 -3.288E-04
   1    4   98     1    98    1.1025E+01  3.2057E-03   1.1022E+01  0.000E+00  0.000E+00  0.000E+00  1.13278E+02  2.528E+00  4.837E+00  1.059E-03  3.569E-03 -3.630E-04
   1    4   99     1    99    1.1022E+01  3.2049E-03   1.1019E+01  0.000E+00  0.000E+00  0.000E+00  1.12978E+02  2.528E+00  4.837E+00  1.059E-03  3.595E-03 -3.905E-04
   1    4  100     1   100    1.1019E+01  3.2041E-03   1.1016E+01  0.000E+00  0.000E+00  0.000E+00  1.12677E+02  2.527E+00  4.836E+00  1.058E-03  3.647E-03 -4.427E-04



1
  VOLUMETRIC BUDGET FOR UNSATURATED ZONE BENEATH STREAMS AT END OF TIME STEP    30 STRESS PERIOD  10
  ------------------------------------------------------------------------------------------------

    CUMULATIVE VOLUMES             L**3    RATES FOR THIS TIME STEP         L**3/T
    ------------------                     ------------------------


          STREAM LOSS =     12463112.0000            STREAM LOSS =            0.3242
    CHANGE IN STORAGE =      1506430.3750      CHANGE IN STORAGE =       -2.5058E-02
       RECHARGE TO GW =     10960257.0000         RECHARGE TO GW =            0.3493

             TOTAL IN =     12463112.0000               TOTAL IN =            0.3492

            TOTAL OUT =     12466687.0000              TOTAL OUT =            0.3493

             IN - OUT =        -3575.0000               IN - OUT =       -7.5966E-05

  PERCENT DISCREPANCY =           -0.01      PERCENT DISCREPANCY =            -0.01



1
              HEAD IN LAYER 1 AT END OF TIME STEP 30 IN STRESS PERIOD 10
  ---------------------------------------------------------------------------

          1      2      3      4      5      6      7      8      9     10
         11     12     13     14     15     16     17     18     19     20
         21     22     23     24     25     26     27     28     29     30
         31     32     33     34     35     36     37     38     39     40
         41     42     43     44     45     46     47     48     49     50
         51     52     53     54     55     56     57     58     59     60
         61     62     63     64     65     66     67     68     69     70
         71     72     73     74     75     76     77     78     79     80
         81     82     83     84     85     86     87     88     89     90
         91     92     93     94     95     96     97     98     99    100
 .........................................................................
   1  107.0 107.0 107.0 106.9 106.8 106.7 106.6 106.5 106.3 106.1
      105.9 105.6 105.3 105.0 104.7 104.3 103.9 103.4 102.9 102.4
      101.8 101.1 100.5 99.7 98.9 98.0 97.1 96.0 94.9 93.7
      92.4 91.0 89.5 87.8 86.0 84.1 81.9 79.6 77.1 74.4
      71.4 68.2 64.6 60.7 56.3 51.4 45.9 39.4 31.6 23.1
      22.3 22.6 23.0 23.9 26.6 32.4 38.7 44.5 49.7 54.3
      58.4 62.1 65.4 68.3 71.0 73.4 75.6 77.6 79.3 80.9
      82.2 83.5 84.5 85.4 86.2 86.9 87.4 87.9 88.2 88.4
      88.5 88.5 88.4 88.2 87.9 87.6 87.2 86.6 86.1 85.4
      84.6 83.8 82.9 82.0 81.0 79.9 78.7 77.5 76.3 75.0
   2  107.1 107.0 107.0 106.9 106.8 106.7 106.6 106.5 106.3 106.1
      105.9 105.6 105.3 105.0 104.7 104.3 103.9 103.4 102.9 102.4
      101.8 101.1 100.5 99.7 98.9 98.0 97.1 96.0 94.9 93.7
      92.4 91.0 89.5 87.8 86.0 84.1 81.9 79.6 77.1 74.4
      71.4 68.2 64.6 60.7 56.3 51.5 45.9 39.4 31.4 20.9
      22.0 22.6 22.9 23.5 25.6 32.0 38.6 44.5 49.7 54.3
      58.4 62.1 65.4 68.4 71.0 73.4 75.6 77.6 79.3 80.9
      82.2 83.5 84.5 85.5 86.2 86.9 87.4 87.9 88.2 88.4
      88.5 88.5 88.4 88.2 87.9 87.6 87.2 86.6 86.1 85.4
      84.6 83.8 82.9 82.0 81.0 79.9 78.7 77.5 76.3 75.0
   3  107.1 107.0 107.0 106.9 106.8 106.7 106.6 106.5 106.3 106.1
      105.9 105.6 105.3 105.0 104.7 104.3 103.9 103.4 102.9 102.4
      101.8 101.2 100.5 99.7 98.9 98.0 97.1 96.0 94.9 93.7
      92.4 91.0 89.5 87.8 86.0 84.1 81.9 79.6 77.1 74.4
      71.5 68.2 64.6 60.7 56.4 51.5 46.0 39.5 31.2 15.1
      21.8 22.6 22.7 22.7 23.5 31.3 38.4 44.4 49.7 54.3
      58.4 62.1 65.4 68.4 71.0 73.5 75.6 77.6 79.3 80.9
      82.3 83.5 84.5 85.5 86.2 86.9 87.4 87.9 88.2 88.4
      88.5 88.5 88.4 88.2 88.0 87.6 87.2 86.7 86.1 85.4
      84.6 83.8 82.9 82.0 81.0 79.9 78.8 77.6 76.3 75.0
   4  107.1 107.0 107.0 106.9 106.9 106.7 106.6 106.5 106.3 106.1
      105.9 105.6 105.3 105.0 104.7 104.3 103.9 103.4 102.9 102.4
      101.8 101.2 100.5 99.7 98.9 98.0 97.1 96.0 94.9 93.7
      92.4 91.0 89.5 87.8 86.0 84.1 82.0 79.7 77.2 74.4
      71.5 68.2 64.6 60.7 56.4 51.5 46.0 39.7 31.9 21.2
      22.6 22.8 22.6 21.8 19.8 30.5 38.2 44.4 49.7 54.3
      58.4 62.1 65.4 68.4 71.0 73.5 75.6 77.6 79.3 80.9
      82.3 83.5 84.5 85.5 86.3 86.9 87.4 87.9 88.2 88.4
      88.5 88.5 88.4 88.2 88.0 87.6 87.2 86.7 86.1 85.4
      84.7 83.8 83.0 82.0 81.0 79.9 78.8 77.6 76.3 75.0
   5  107.1 107.0 107.0 106.9 106.8 106.7 106.6 106.5 106.3 106.1
      105.9 105.6 105.3 105.0 104.7 104.3 103.9 103.4 102.9 102.4
      101.8 101.2 100.5 99.7 98.9 98.0 97.1 96.0 94.9 93.7
      92.4 91.0 89.5 87.8 86.0 84.1 81.9 79.6 77.1 74.4
      71.5 68.2 64.6 60.7 56.4 51.5 46.1 39.9 32.6 24.7
      23.4 23.0 22.4 21.0 13.3 29.7 38.0 44.3 49.6 54.3
      58.4 62.1 65.4 68.4 71.0 73.5 75.6 77.6 79.3 80.9
      82.3 83.5 84.5 85.5 86.2 86.9 87.4 87.9 88.2 88.4
      88.5 88.5 88.4 88.2 88.0 87.6 87.2 86.7 86.1 85.4
      84.6 83.8 82.9 82.0 81.0 79.9 78.8 77.6 76.3 75.0
   6  107.1 107.0 107.0 106.9 106.8 106.7 106.6 106.5 106.3 106.1
      105.9 105.6 105.3 105.0 104.7 104.3 103.9 103.4 102.9 102.4
      101.8 101.1 100.5 99.7 98.9 98.0 97.1 96.0 94.9 93.7
      92.4 91.0 89.5 87.8 86.0 84.1 81.9 79.6 77.1 74.4
      71.4 68.2 64.6 60.7 56.4 51.5 46.1 40.0 33.3 26.7
      24.2 23.1 22.4 21.2 19.5 30.0 37.9 44.2 49.6 54.3
      58.4 62.1 65.4 68.4 71.0 73.4 75.6 77.6 79.3 80.9
      82.2 83.5 84.5 85.5 86.2 86.9 87.4 87.9 88.2 88.4
      88.5 88.5 88.4 88.2 87.9 87.6 87.2 86.6 86.1 85.4
      84.6 83.8 82.9 82.0 81.0 79.9 78.7 77.5 76.3 75.0
   7  107.0 107.0 107.0 106.9 106.8 106.7 106.6 106.5 106.3 106.1
      105.9 105.6 105.3 105.0 104.7 104.3 103.9 103.4 102.9 102.4
      101.8 101.1 100.5 99.7 98.9 98.0 97.1 96.0 94.9 93.7
      92.4 91.0 89.5 87.8 86.0 84.1 81.9 79.6 77.1 74.4
      71.4 68.2 64.6 60.7 56.4 51.5 46.2 40.2 33.7 27.6
      24.6 23.3 22.4 21.5 21.9 30.3 37.9 44.2 49.6 54.2
      58.4 62.1 65.4 68.3 71.0 73.4 75.6 77.6 79.3 80.9
      82.2 83.5 84.5 85.4 86.2 86.9 87.4 87.9 88.2 88.4
      88.5 88.5 88.4 88.2 87.9 87.6 87.2 86.6 86.1 85.4
      84.6 83.8 82.9 82.0 81.0 79.9 78.7 77.5 76.3 75.0

 HEAD WILL BE SAVED ON UNIT   51 AT END OF TIME STEP   30, STRESS PERIOD   10
1
  VOLUMETRIC BUDGET FOR ENTIRE MODEL AT END OF TIME STEP   30, STRESS PERIOD  10
  ------------------------------------------------------------------------------

     CUMULATIVE VOLUMES      L**3       RATES FOR THIS TIME STEP      L**3/T
     ------------------                 ------------------------

           IN:                                      IN:
           ---                                      ---
             STORAGE     =    57590388.0000               STORAGE     =           1.3516
       CONSTANT HEAD     =           0.0000         CONSTANT HEAD     =           0.0000
               WELLS     =           0.0000                 WELLS     =           0.0000
     HEAD DEP BOUNDS     =           0.0000       HEAD DEP BOUNDS     =           0.0000
      STREAM LEAKAGE     =    10960281.0000        STREAM LEAKAGE     =           0.3493

                TOTAL IN =    68550672.0000                  TOTAL IN =           1.7009

          OUT:                                     OUT:
          ----                                     ----
             STORAGE     =     1531952.6250               STORAGE     =           0.0000
       CONSTANT HEAD     =           0.0000         CONSTANT HEAD     =           0.0000
               WELLS     =    54939532.0000                 WELLS     =           1.4600
     HEAD DEP BOUNDS     =    12079191.0000       HEAD DEP BOUNDS     =           0.2409
      STREAM LEAKAGE     =           0.0000        STREAM LEAKAGE     =           0.0000

               TOTAL OUT =    68550672.0000                 TOTAL OUT =           1.7009

                IN - OUT =           0.0000                  IN - OUT =      -1.1921E-07

     PERCENT DISCREPANCY =           0.00         PERCENT DISCREPANCY =          -0.00






         TIME SUMMARY AT END OF TIME STEP   30 IN STRESS PERIOD   10
                    SECONDS     MINUTES      HOURS       DAYS        YEARS
                    -----------------------------------------------------------
   TIME STEP LENGTH 2.49961E+05  4166.0      69.434      2.8931     7.92080E-03
 STRESS PERIOD TIME 2.59200E+06  43200.      720.00      30.000     8.21355E-02
         TOTAL TIME 2.59200E+07 4.32000E+05  7200.0      300.00     0.82136    
1
1
                            STRESS PERIOD NO.   11, LENGTH =   2592000.    
                            -----------------------------------------------

                              NUMBER OF TIME STEPS =    30

                               MULTIPLIER FOR DELT =     1.100

                            INITIAL TIME STEP SIZE =   15757.40    

 REUSING NON-PARAMETER WELLS FROM LAST STRESS PERIOD

      1 WELL 

 REUSING NON-PARAMETER GHB CELLS FROM LAST STRESS PERIOD

      7 GHB CELLS



 CLASSIFICATION & COUNT OF STREAM SEGMENTS BASED ON SOURCE OF INFLOW:

                HEADWATER     DIVERSION     RECEIVES TRIBUTARY FLOW
                ---------     ---------     -----------------------
                     1              0               0



                    INPUT DATA FOR EACH STREAM SEGMENT
 ---------------------------------------------------------------------------------------------

 SEGMENT    SEG.     INFLOW   OVERLAND   STREAM    STREAM   ICALC  OUTFLOW  DIVERSION PRIORITY
    NO.    LENGTH     RATE     RUNOFF      ET       PPT.    METH.  TO SEG.  FROM SEG.    NO.

      1  2.000E+04 3.384E+00 0.000E+00 0.000E+00 0.000E+00    2        0        0        0


         STREAMBED PROPERTIES AND STREAM DIMENSIONS

 SEGMENT     BED HYD. COND.      BED THICKNESS     ELEV.-TOP OF BED     WIDTH OF STREAM     DEPTH OF STREAM    STREAM ROUGHNESS
    No.     UPPER     LOWER     UPPER     LOWER     UPPER     LOWER     UPPER     LOWER     UPPER     LOWER   CHANNEL      BANK

     1  3.500E-07 3.500E-07                                                                                 3.000E-02 4.000E-02

  EIGHT POINT CROSS-SECTION DATA FOR SEGMENTS WITH ICALC = 2
    X VALUES X VALUES START FROM LEFT SIDE LOOKING DOWNSTREAM

     SEGMENT NO.        X1        X2        X3        X4        X5        X6        X7        X8
            1      0.000E+00 2.000E+00 4.000E+00 6.000E+00 8.000E+00 1.000E+01 1.200E+01 1.400E+01

    Z VALUES ARE RELATIVE TO STREAMBED ELEVATION

     SEGMENT NO.          Z1        Z2        Z3        Z4        Z5        Z6        Z7        Z8
            1      6.000E+00 4.500E+00 3.500E+00 0.000E+00 3.000E-01 3.500E+00 4.500E+00 6.000E+00



 
 SOLVING FOR HEAD 
                                                   Max.-Head-Change                         Max.-Flux-Residual
  Residual-Control   Outer-Iter.   Inner-Iter.     Column Row Layer    Maximum-Head-Change  Column Row Layer    Maximum-Flux-Residual          L2-NORM 
          0                 1           2            55    5     1       0.8078874700E+00      50    3    1         0.2286916270E+00      0.3282802788E+00
          0                 2           2            55    5     1      -0.7885617132E-01      50    3    1        -0.2317823731E-01      0.3349314041E-01
          0                 3           2            55    5     1       0.7016598782E-02      50    3    1         0.2084749536E-02      0.3019721024E-02
          0                 4           2            55    5     1      -0.5569019015E-03      50    3    1        -0.1669973462E-03      0.2420043075E-03
          0                 5           1            55    5     1       0.3879465774E-04      50    3    1         0.1173969816E-04      0.1701381373E-04
          0                 6           1            55    5     1      -0.2329512141E-05      50    3    1        -0.7113790510E-06      0.1030960406E-05
          0                 7           1            55    5     1       0.1177072404E-06      50    3    1         0.3627325684E-07      0.5256755766E-07

    ------------------------------------------------
       NWT REQUIRED            7 OUTER ITERATIONS 
       AND A TOTAL OF         11 INNER ITERATIONS.
    ------------------------------------------------

 NO OUTPUT CONTROL FOR STRESS PERIOD   11   TIME STEP    1
 
 SOLVING FOR HEAD 
                                                   Max.-Head-Change                         Max.-Flux-Residual
  Residual-Control   Outer-Iter.   Inner-Iter.     Column Row Layer    Maximum-Head-Change  Column Row Layer    Maximum-Flux-Residual          L2-NORM 
          0                 1           2            55    5     1       0.6670723445E+00      55    5    1         0.1680666942E+00      0.2465200643E+00
          0                 2           2            55    5     1      -0.6397235687E-01      55    5    1        -0.1714439537E-01      0.2515410060E-01
          0                 3           2            55    5     1       0.5669222232E-02      55    5    1         0.1541411364E-02      0.2274674873E-02
          0                 4           2            55    5     1      -0.4498275549E-03      55    5    1        -0.1234775517E-03      0.1824412370E-03
          0                 5           1            55    5     1       0.3133567573E-04      55    5    1         0.8680287936E-05      0.1282848396E-04
          0                 6           1            55    5     1      -0.1881618331E-05      55    5    1        -0.5259913132E-06      0.7773904465E-06
          0                 7           1            55    5     1       0.9507578211E-07      55    5    1         0.2682035183E-07      0.3963978526E-07

    ------------------------------------------------
       NWT REQUIRED            7 OUTER ITERATIONS 
       AND A TOTAL OF         11 INNER ITERATIONS.
    ------------------------------------------------

 NO OUTPUT CONTROL FOR STRESS PERIOD   11   TIME STEP    2
 
 SOLVING FOR HEAD 
                                                   Max.-Head-Change                         Max.-Flux-Residual
  Residual-Control   Outer-Iter.   Inner-Iter.     Column Row Layer    Maximum-Head-Change  Column Row Layer    Maximum-Flux-Residual          L2-NORM 
          0                 1           2            55    5     1       0.5603529753E+00      55    5    1         0.1263887486E+00      0.1942083536E+00
          0                 2           2            55    5     1      -0.5280248019E-01      55    5    1        -0.1293414963E-01      0.1961719297E-01
          0                 3           2            55    5     1       0.4654641891E-02      55    5    1         0.1162530042E-02      0.1781843751E-02
          0                 4           2            55    5     1      -0.3690686836E-03      55    5    1        -0.9312837194E-04      0.1431223644E-03
          0                 5           1            55    5     1       0.2570937498E-04      55    5    1         0.6546774903E-05      0.1006714920E-04
          0                 6           1            55    5     1      -0.1543773850E-05      55    5    1        -0.3967089769E-06      0.6100954599E-06
          0                 7           1            55    5     1       0.7800497014E-07      55    5    1         0.2022823020E-07      0.3110910680E-07

    ------------------------------------------------
       NWT REQUIRED            7 OUTER ITERATIONS 
       AND A TOTAL OF         11 INNER ITERATIONS.
    ------------------------------------------------

 NO OUTPUT CONTROL FOR STRESS PERIOD   11   TIME STEP    3
 
 SOLVING FOR HEAD 
                                                   Max.-Head-Change                         Max.-Flux-Residual
  Residual-Control   Outer-Iter.   Inner-Iter.     Column Row Layer    Maximum-Head-Change  Column Row Layer    Maximum-Flux-Residual          L2-NORM 
          0                 1           2            55    5     1       0.4779524750E+00      55    5    1         0.9661359374E-01      0.1595270325E+00
          0                 2           2            55    5     1      -0.4430540294E-01      55    5    1        -0.9897352993E-02      0.1592749814E-01
          0                 3           2            55    5     1       0.3881679522E-02      55    5    1         0.8894310348E-03      0.1454590076E-02
          0                 4           2            55    5     1      -0.3074147819E-03      55    5    1        -0.7125139678E-04      0.1171108633E-03
          0                 5           1            55    5     1       0.2141274676E-04      55    5    1         0.5008856384E-05      0.8243100771E-05
          0                 6           1            55    5     1      -0.1285776657E-05      55    5    1        -0.3035171641E-06      0.4996321488E-06
          0                 7           1            55    5     1       0.6496859696E-07      55    5    1         0.1547636919E-07      0.2547699568E-07

    ------------------------------------------------
       NWT REQUIRED            7 OUTER ITERATIONS 
       AND A TOTAL OF         11 INNER ITERATIONS.
    ------------------------------------------------

 NO OUTPUT CONTROL FOR STRESS PERIOD   11   TIME STEP    4
 
 SOLVING FOR HEAD 
                                                   Max.-Head-Change                         Max.-Flux-Residual
  Residual-Control   Outer-Iter.   Inner-Iter.     Column Row Layer    Maximum-Head-Change  Column Row Layer    Maximum-Flux-Residual          L2-NORM 
          0                 1           2            55    5     1       0.4140686763E+00      55    5    1         0.7508292734E-01      0.1359941302E+00
          0                 2           2            55    5     1      -0.3782216939E-01      55    5    1        -0.7691087015E-02      0.1346234345E-01
          0                 3           2            55    5     1       0.3291541074E-02      55    5    1         0.6911134344E-03      0.1236816588E-02
          0                 4           2            55    5     1      -0.2602308309E-03      55    5    1        -0.5536435699E-04      0.9989961596E-04
          0                 5           1            55    5     1       0.1812232322E-04      55    5    1         0.3892024678E-05      0.7039701876E-05
          0                 6           1            55    5     1      -0.1088196508E-05      55    5    1        -0.2358414907E-06      0.4268240904E-06
          0                 7           1            55    5     1       0.5498495708E-07      55    5    1         0.1202558042E-07      0.2176566033E-07

    ------------------------------------------------
       NWT REQUIRED            7 OUTER ITERATIONS 
       AND A TOTAL OF         11 INNER ITERATIONS.
    ------------------------------------------------

 NO OUTPUT CONTROL FOR STRESS PERIOD   11   TIME STEP    5
 
 SOLVING FOR HEAD 
                                                   Max.-Head-Change                         Max.-Flux-Residual
  Residual-Control   Outer-Iter.   Inner-Iter.     Column Row Layer    Maximum-Head-Change  Column Row Layer    Maximum-Flux-Residual          L2-NORM 
          0                 1           2            55    5     1       0.3636074732E+00      55    5    1         0.5916758645E-01      0.1195050872E+00
          0                 2           2            55    5     1      -0.3277926853E-01      55    5    1        -0.6057012497E-02      0.1177621117E-01
          0                 3           2            55    5     1       0.2832491857E-02      55    5    1         0.5442724802E-03      0.1088562732E-02
          0                 4           2            55    5     1      -0.2234318508E-03      55    5    1        -0.4360084548E-04      0.8827695366E-04
          0                 5           1            55    5     1       0.1555333518E-04      55    5    1         0.3065071264E-05      0.6231209807E-05
          0                 6           1            55    5     1      -0.9339201271E-06      55    5    1        -0.1857313303E-06      0.3780037609E-06

    ------------------------------------------------
       NWT REQUIRED            6 OUTER ITERATIONS 
       AND A TOTAL OF         10 INNER ITERATIONS.
    ------------------------------------------------

 NO OUTPUT CONTROL FOR STRESS PERIOD   11   TIME STEP    6
 
 SOLVING FOR HEAD 
                                                   Max.-Head-Change                         Max.-Flux-Residual
  Residual-Control   Outer-Iter.   Inner-Iter.     Column Row Layer    Maximum-Head-Change  Column Row Layer    Maximum-Flux-Residual          L2-NORM 
          0                 1           2            55    5     1       0.3237924397E+00      55    5    1         0.4729978172E-01      0.1077146323E+00
          0                 2           2            55    5     1      -0.2885708181E-01      55    5    1        -0.4838156557E-02      0.1059964259E-01
          0                 3           2            55    5     1       0.2475045126E-02      55    5    1         0.4347600663E-03      0.9857752085E-03
          0                 4           2            55    5     1      -0.1946818505E-03      55    5    1        -0.3482768355E-04      0.8031414940E-04
          0                 5           1            55    5     1       0.1354327720E-04      55    5    1         0.2448334301E-05      0.5681995753E-05
          0                 6           1            55    5     1      -0.8131776439E-06      55    5    1        -0.1483594687E-06      0.3449703663E-06

    ------------------------------------------------
       NWT REQUIRED            6 OUTER ITERATIONS 
       AND A TOTAL OF         10 INNER ITERATIONS.
    ------------------------------------------------

 NO OUTPUT CONTROL FOR STRESS PERIOD   11   TIME STEP    7
 
 SOLVING FOR HEAD 
                                                   Max.-Head-Change                         Max.-Flux-Residual
  Residual-Control   Outer-Iter.   Inner-Iter.     Column Row Layer    Maximum-Head-Change  Column Row Layer    Maximum-Flux-Residual          L2-NORM 
          0                 1           2            55    5     1       0.2923250347E+00      55    5    1         0.3835763624E-01      0.9904841462E-01
          0                 2           2            55    5     1      -0.2591945956E-01      55    5    1        -0.3920355729E-02      0.9747662722E-02
          0                 3           2            55    5     1       0.2202648007E-02      55    5    1         0.3522815105E-03      0.9115075102E-03
          0                 4           2            55    5     1      -0.1723253203E-03      55    5    1        -0.2822037288E-04      0.7469124981E-04
          0                 5           1            55    5     1       0.1196570705E-04      55    5    1         0.1983852237E-05      0.5301041557E-05
          0                 6           1            55    5     1      -0.7182075385E-06      55    5    1        -0.1202136632E-06      0.3222510053E-06

    ------------------------------------------------
       NWT REQUIRED            6 OUTER ITERATIONS 
       AND A TOTAL OF         10 INNER ITERATIONS.
    ------------------------------------------------

 NO OUTPUT CONTROL FOR STRESS PERIOD   11   TIME STEP    8
 
 SOLVING FOR HEAD 
                                                   Max.-Head-Change                         Max.-Flux-Residual
  Residual-Control   Outer-Iter.   Inner-Iter.     Column Row Layer    Maximum-Head-Change  Column Row Layer    Maximum-Flux-Residual          L2-NORM 
          0                 1           2            55    5     1       0.2667462577E+00      55    5    1         0.3145185655E-01      0.9246878945E-01
          0                 2           2            55    5     1      -0.2345595271E-01      55    5    1        -0.3212238620E-02      0.9113777944E-02
          0                 3           2            55    5     1       0.1979085785E-02      55    5    1         0.2886674330E-03      0.8569634926E-03
          0                 4           2            55    5     1      -0.1542216061E-03      55    5    1        -0.2312418975E-04      0.7060591582E-04
          0                 5           1            55    5     1       0.1069263763E-04      55    5    1         0.1625599756E-05      0.5028094830E-05
          0                 6           1            55    5     1      -0.6415504484E-06      55    5    1        -0.9850495675E-07      0.3061471865E-06

    ------------------------------------------------
       NWT REQUIRED            6 OUTER ITERATIONS 
       AND A TOTAL OF         10 INNER ITERATIONS.
    ------------------------------------------------

 NO OUTPUT CONTROL FOR STRESS PERIOD   11   TIME STEP    9
 
 SOLVING FOR HEAD 
                                                   Max.-Head-Change                         Max.-Flux-Residual
  Residual-Control   Outer-Iter.   Inner-Iter.     Column Row Layer    Maximum-Head-Change  Column Row Layer    Maximum-Flux-Residual          L2-NORM 
          0                 1           2            55    5     1       0.2469894240E+00      55    5    1         0.2612306542E-01      0.8743372926E-01
          0                 2           2            55    5     1      -0.2153599202E-01      55    5    1        -0.2666668320E-02      0.8626598401E-02
          0                 3           2            55    5     1       0.1802942130E-02      55    5    1         0.2396496409E-03      0.8154768679E-03
          0                 4           2            55    5     1      -0.1398379799E-03      55    5    1        -0.1919737718E-04      0.6758016940E-04
          0                 5           1            55    5     1       0.9676360076E-05      55    5    1         0.1349551616E-05      0.4831690677E-05
          0                 6           1            55    5     1      -0.5802341782E-06      55    5    1        -0.8177751598E-07      0.2947957381E-06

    ------------------------------------------------
       NWT REQUIRED            6 OUTER ITERATIONS 
       AND A TOTAL OF         10 INNER ITERATIONS.
    ------------------------------------------------

 NO OUTPUT CONTROL FOR STRESS PERIOD   11   TIME STEP   10
 
 SOLVING FOR HEAD 
                                                   Max.-Head-Change                         Max.-Flux-Residual
  Residual-Control   Outer-Iter.   Inner-Iter.     Column Row Layer    Maximum-Head-Change  Column Row Layer    Maximum-Flux-Residual          L2-NORM 
          0                 1           2            55    5     1       0.2317842222E+00      55    5    1         0.2202624176E-01      0.8345798506E-01
          0                 2           2            55    5     1      -0.2006466473E-01      55    5    1        -0.2248020250E-02      0.8245270775E-02
          0                 3           2            50    2     1       0.1667425960E-02      55    5    1         0.2020306278E-03      0.7834979776E-03
          0                 4           2            50    2     1      -0.1314433315E-03      55    5    1        -0.1618376423E-04      0.6532380970E-04
          0                 5           1            50    2     1       0.9136090678E-05      55    5    1         0.1137699539E-05      0.4690899234E-05
          0                 6           1            50    2     1      -0.5482461181E-06      55    5    1        -0.6894010718E-07      0.2869085370E-06

    ------------------------------------------------
       NWT REQUIRED            6 OUTER ITERATIONS 
       AND A TOTAL OF         10 INNER ITERATIONS.
    ------------------------------------------------

 NO OUTPUT CONTROL FOR STRESS PERIOD   11   TIME STEP   11
 
 SOLVING FOR HEAD 
                                                   Max.-Head-Change                         Max.-Flux-Residual
  Residual-Control   Outer-Iter.   Inner-Iter.     Column Row Layer    Maximum-Head-Change  Column Row Layer    Maximum-Flux-Residual          L2-NORM 
          0                 1           2            55    5     1       0.2198160813E+00      55    5    1         0.1877414518E-01      0.8020573995E-01
          0                 2           2            55    5     1      -0.1890293669E-01      55    5    1        -0.1916226479E-02      0.7933352072E-02
          0                 3           2            50    2     1       0.1623550137E-02      55    5    1         0.1722122524E-03      0.7577141608E-03
          0                 4           2            50    2     1      -0.1277833527E-03      55    5    1        -0.1379508555E-04      0.6357053036E-04
          0                 5           1            50    2     1       0.8874944520E-05      55    5    1         0.9697790915E-06      0.4587048596E-05
          0                 6           1            50    2     1      -0.5324003562E-06      55    5    1        -0.5876478515E-07      0.2813625943E-06

    ------------------------------------------------
       NWT REQUIRED            6 OUTER ITERATIONS 
       AND A TOTAL OF         10 INNER ITERATIONS.
    ------------------------------------------------

 NO OUTPUT CONTROL FOR STRESS PERIOD   11   TIME STEP   12
 
 SOLVING FOR HEAD 
                                                   Max.-Head-Change                         Max.-Flux-Residual
  Residual-Control   Outer-Iter.   Inner-Iter.     Column Row Layer    Maximum-Head-Change  Column Row Layer    Maximum-Flux-Residual          L2-NORM 
          0                 1           2            55    5     1       0.2107804701E+00      55    5    1         0.1620217769E-01      0.7750627991E-01
          0                 2           2            50    2     1      -0.1816811993E-01      55    5    1        -0.1654360366E-02      0.7673521541E-02
          0                 3           2            50    2     1       0.1582355937E-02      55    5    1         0.1486737400E-03      0.7365031886E-03
          0                 4           2            50    1     1      -0.1244067297E-03      55    5    1        -0.1190950893E-04      0.6218723929E-04
          0                 5           1            50    1     1       0.8654483003E-05      55    5    1         0.8372257140E-06      0.4510650037E-05
          0                 6           1            50    1     1      -0.5192454166E-06      55    5    1        -0.5073256881E-07      0.2775841518E-06

    ------------------------------------------------
       NWT REQUIRED            6 OUTER ITERATIONS 
       AND A TOTAL OF         10 INNER ITERATIONS.
    ------------------------------------------------

 NO OUTPUT CONTROL FOR STRESS PERIOD   11   TIME STEP   13
 
 SOLVING FOR HEAD 
                                                   Max.-Head-Change                         Max.-Flux-Residual
  Residual-Control   Outer-Iter.   Inner-Iter.     Column Row Layer    Maximum-Head-Change  Column Row Layer    Maximum-Flux-Residual          L2-NORM 
          0                 1           2            55    5     1       0.2041557377E+00      55    5    1         0.1414492846E-01      0.7522578879E-01
          0                 2           2            50    2     1      -0.1779617952E-01      55    5    1        -0.1445351461E-02      0.7453074005E-02
          0                 3           2            50    1     1       0.1560238819E-02      55    5    1         0.1298822952E-03      0.7187712562E-03
          0                 4           2            50    1     1      -0.1232729534E-03      55    5    1        -0.1040423442E-04      0.6108386782E-04
          0                 5           1            50    1     1       0.8571164289E-05      55    5    1         0.7314068331E-06      0.4454993523E-05
          0                 6           1            50    1     1      -0.5140528885E-06      55    5    1        -0.4432035972E-07      0.2751509093E-06

    ------------------------------------------------
       NWT REQUIRED            6 OUTER ITERATIONS 
       AND A TOTAL OF         10 INNER ITERATIONS.
    ------------------------------------------------

 NO OUTPUT CONTROL FOR STRESS PERIOD   11   TIME STEP   14
 
 SOLVING FOR HEAD 
                                                   Max.-Head-Change                         Max.-Flux-Residual
  Residual-Control   Outer-Iter.   Inner-Iter.     Column Row Layer    Maximum-Head-Change  Column Row Layer    Maximum-Flux-Residual          L2-NORM 
          0                 1           2            50    3     1       0.1999103315E+00      55    5    1         0.1244715523E-01      0.7325950022E-01
          0                 2           2            50    1     1      -0.1750797901E-01      55    5    1        -0.1273135331E-02      0.7261808800E-02
          0                 3           2            50    1     1       0.1542024336E-02      55    5    1         0.1143960648E-03      0.7035012529E-03
          0                 4           2            50    1     1      -0.1216785984E-03      55    5    1        -0.9163744706E-05      0.6017360714E-04
          0                 5           1            50    1     1       0.8454464357E-05      55    5    1         0.6442018415E-06      0.4413832396E-05
          0                 6           1            50    1     1      -0.5067890014E-06      55    5    1        -0.3903608070E-07      0.2736857714E-06

    ------------------------------------------------
       NWT REQUIRED            6 OUTER ITERATIONS 
       AND A TOTAL OF         10 INNER ITERATIONS.
    ------------------------------------------------

 NO OUTPUT CONTROL FOR STRESS PERIOD   11   TIME STEP   15
 
 SOLVING FOR HEAD 
                                                   Max.-Head-Change                         Max.-Flux-Residual
  Residual-Control   Outer-Iter.   Inner-Iter.     Column Row Layer    Maximum-Head-Change  Column Row Layer    Maximum-Flux-Residual          L2-NORM 
          0                 1           2            50    3     1       0.1979666232E+00      50    3    1         0.1108953999E-01      0.7157134982E-01
          0                 2           2            50    1     1      -0.1732020743E-01      50    3    1        -0.1134461029E-02      0.7092090105E-02
          0                 3           2            50    1     1       0.1521757583E-02      50    3    1         0.1019295567E-03      0.6897220017E-03
          0                 4           2            50    1     1      -0.1198892633E-03      50    3    1        -0.8165118970E-05      0.5937047426E-04
          0                 5           1            50    1     1       0.8322591113E-05      50    3    1         0.5739998881E-06      0.4381229724E-05
          0                 6           1            50    1     1      -0.4985256441E-06      50    3    1        -0.3474974974E-07      0.2728531693E-06

    ------------------------------------------------
       NWT REQUIRED            6 OUTER ITERATIONS 
       AND A TOTAL OF         10 INNER ITERATIONS.
    ------------------------------------------------

 NO OUTPUT CONTROL FOR STRESS PERIOD   11   TIME STEP   16
 
 SOLVING FOR HEAD 
                                                   Max.-Head-Change                         Max.-Flux-Residual
  Residual-Control   Outer-Iter.   Inner-Iter.     Column Row Layer    Maximum-Head-Change  Column Row Layer    Maximum-Flux-Residual          L2-NORM 
          0                 1           2            50    3     1       0.1973576047E+00      50    3    1         0.9989622679E-02      0.7021000847E-01
          0                 2           2            50    1     1      -0.1714776310E-01      50    3    1        -0.1023605243E-02      0.6940579509E-02
          0                 3           2            50    1     1       0.1502312342E-02      50    3    1         0.9195454012E-04      0.6768793128E-03
          0                 4           2            50    1     1      -0.1181283514E-03      50    3    1        -0.7366143067E-05      0.5862791495E-04
          0                 5           1            50    1     1       0.8190774641E-05      50    3    1         0.5178325405E-06      0.4354197914E-05
          0                 6           1            50    1     1      -0.4901463614E-06      50    3    1        -0.3134321436E-07      0.2724946829E-06

    ------------------------------------------------
       NWT REQUIRED            6 OUTER ITERATIONS 
       AND A TOTAL OF         10 INNER ITERATIONS.
    ------------------------------------------------

 NO OUTPUT CONTROL FOR STRESS PERIOD   11   TIME STEP   17
 
 SOLVING FOR HEAD 
                                                   Max.-Head-Change                         Max.-Flux-Residual
  Residual-Control   Outer-Iter.   Inner-Iter.     Column Row Layer    Maximum-Head-Change  Column Row Layer    Maximum-Flux-Residual          L2-NORM 
          0                 1           2            50    3     1       0.1977826825E+00      50    3    1         0.9044909074E-02      0.6917295169E-01
          0                 2           2            50    1     1      -0.1701376765E-01      50    3    1        -0.9285285516E-03      0.6818778042E-02
          0                 3           2            50    1     1       0.1485706986E-02      50    3    1         0.8339805626E-04      0.6664045060E-03
          0                 4           2            50    1     1      -0.1165519589E-03      50    3    1        -0.6680800254E-05      0.5806363581E-04
          0                 5           1            50    1     1       0.8069550803E-05      50    3    1         0.4696534698E-06      0.4340466289E-05
          0                 6           1            50    1     1      -0.4822472129E-06      50    4    1         0.3000910231E-07      0.2730284487E-06

    ------------------------------------------------
       NWT REQUIRED            6 OUTER ITERATIONS 
       AND A TOTAL OF         10 INNER ITERATIONS.
    ------------------------------------------------

 NO OUTPUT CONTROL FOR STRESS PERIOD   11   TIME STEP   18
 
 SOLVING FOR HEAD 
                                                   Max.-Head-Change                         Max.-Flux-Residual
  Residual-Control   Outer-Iter.   Inner-Iter.     Column Row Layer    Maximum-Head-Change  Column Row Layer    Maximum-Flux-Residual          L2-NORM 
          0                 1           2            50    3     1       0.1994319434E+00      50    3    1         0.8255161435E-02      0.6840210611E-01
          0                 2           2            51    1     1      -0.1705805980E-01      50    3    1        -0.8493080565E-03      0.6723183649E-02
          0                 3           2            51    1     1       0.1486805740E-02      50    3    1         0.7626626568E-04      0.6575845139E-03
          0                 4           2            51    1     1      -0.1164942373E-03      50    3    1        -0.6109589120E-05      0.5759533893E-04
          0                 5           1            51    1     1       0.8059831209E-05      66    4    1         0.4614503215E-06      0.4333764361E-05
          0                 6           1            51    1     1      -0.4818264919E-06      66    4    1        -0.3075223809E-07      0.2740913007E-06

    ------------------------------------------------
       NWT REQUIRED            6 OUTER ITERATIONS 
       AND A TOTAL OF         10 INNER ITERATIONS.
    ------------------------------------------------

 NO OUTPUT CONTROL FOR STRESS PERIOD   11   TIME STEP   19
 
 SOLVING FOR HEAD 
                                                   Max.-Head-Change                         Max.-Flux-Residual
  Residual-Control   Outer-Iter.   Inner-Iter.     Column Row Layer    Maximum-Head-Change  Column Row Layer    Maximum-Flux-Residual          L2-NORM 
          0                 1           3            50    3     1       0.2020493446E+00      50    3    1         0.7570870781E-02      0.6780260897E-01
          0                 2           2            51    1     1      -0.1780500447E-01      50    3    1        -0.7808269555E-03      0.6649819694E-02
          0                 3           2            51    1     1       0.1546091902E-02      50    3    1         0.7009999140E-04      0.6507263405E-03
          0                 4           2            51    1     1      -0.1207926349E-03      50    3    1        -0.5615722450E-05      0.5726614433E-04
          0                 5           1            51    1     1       0.8340602923E-05      66    4    1         0.4667759494E-06      0.4336265252E-05
          0                 6           1            51    1     1      -0.4977214886E-06      68    4    1        -0.3144349492E-07      0.2756753920E-06

    ------------------------------------------------
       NWT REQUIRED            6 OUTER ITERATIONS 
       AND A TOTAL OF         11 INNER ITERATIONS.
    ------------------------------------------------

 NO OUTPUT CONTROL FOR STRESS PERIOD   11   TIME STEP   20
 
 SOLVING FOR HEAD 
                                                   Max.-Head-Change                         Max.-Flux-Residual
  Residual-Control   Outer-Iter.   Inner-Iter.     Column Row Layer    Maximum-Head-Change  Column Row Layer    Maximum-Flux-Residual          L2-NORM 
          0                 1           3            50    3     1       0.2054903326E+00      50    3    1         0.6964597291E-02      0.6725642598E-01
          0                 2           2            51    1     1      -0.1859059281E-01      50    3    1        -0.7202618442E-03      0.6590753267E-02
          0                 3           2            51    1     1       0.1607734774E-02      50    3    1         0.6464573976E-04      0.6452731966E-03
          0                 4           2            51    1     1      -0.1251997571E-03      65    4    1        -0.5513478136E-05      0.5703182551E-04
          0                 5           1            51    1     1       0.8624317795E-05      65    4    1         0.4702857854E-06      0.4344385111E-05
          0                 6           1            51    1     1      -0.5134571986E-06      68    4    1        -0.3195994402E-07      0.2774989712E-06

    ------------------------------------------------
       NWT REQUIRED            6 OUTER ITERATIONS 
       AND A TOTAL OF         11 INNER ITERATIONS.
    ------------------------------------------------

 NO OUTPUT CONTROL FOR STRESS PERIOD   11   TIME STEP   21
 
 SOLVING FOR HEAD 
                                                   Max.-Head-Change                         Max.-Flux-Residual
  Residual-Control   Outer-Iter.   Inner-Iter.     Column Row Layer    Maximum-Head-Change  Column Row Layer    Maximum-Flux-Residual          L2-NORM 
          0                 1           3            50    3     1       0.2106929743E+00      50    3    1         0.6447915936E-02      0.6669752939E-01
          0                 2           2            51    1     1      -0.1925159330E-01      50    3    1        -0.6689655617E-03      0.6543652898E-02
          0                 3           2            51    1     1       0.1653684422E-02      50    3    1         0.6004446366E-04      0.6427194956E-03
          0                 4           2            51    1     1      -0.1285246331E-03      51    4    1         0.6190075838E-05      0.5701531643E-04
          0                 5           1            51    1     1       0.8856757400E-05      51    4    1        -0.4788679471E-06      0.4360947002E-05
          0                 6           1            51    1     1      -0.5273577316E-06      68    4    1        -0.3283983752E-07      0.2793358592E-06

    ------------------------------------------------
       NWT REQUIRED            6 OUTER ITERATIONS 
       AND A TOTAL OF         11 INNER ITERATIONS.
    ------------------------------------------------

 NO OUTPUT CONTROL FOR STRESS PERIOD   11   TIME STEP   22
 
 SOLVING FOR HEAD 
                                                   Max.-Head-Change                         Max.-Flux-Residual
  Residual-Control   Outer-Iter.   Inner-Iter.     Column Row Layer    Maximum-Head-Change  Column Row Layer    Maximum-Flux-Residual          L2-NORM 
          0                 1           3            50    3     1       0.2166796087E+00      50    3    1         0.6024396438E-02      0.6615492985E-01
          0                 2           2            51    1     1      -0.2008666790E-01      50    3    1        -0.6273152279E-03      0.6495851468E-02
          0                 3           2            51    1     1       0.1715146907E-02      51    4    1        -0.5864621338E-04      0.6395978096E-03
          0                 4           2            51    1     1      -0.1328360179E-03      51    4    1         0.6155117487E-05      0.5689878246E-04
          0                 5           1            51    1     1       0.9136261041E-05      51    4    1        -0.4824490554E-06      0.4368096275E-05
          0                 6           1            51    1     1      -0.5427547312E-06      68    4    1        -0.3352272948E-07      0.2803922740E-06

    ------------------------------------------------
       NWT REQUIRED            6 OUTER ITERATIONS 
       AND A TOTAL OF         11 INNER ITERATIONS.
    ------------------------------------------------

 NO OUTPUT CONTROL FOR STRESS PERIOD   11   TIME STEP   23
 
 SOLVING FOR HEAD 
                                                   Max.-Head-Change                         Max.-Flux-Residual
  Residual-Control   Outer-Iter.   Inner-Iter.     Column Row Layer    Maximum-Head-Change  Column Row Layer    Maximum-Flux-Residual          L2-NORM 
          0                 1           3            52    1     1       0.2305082681E+00      50    3    1         0.5640959221E-02      0.6555925292E-01
          0                 2           2            52    1     1      -0.2122749976E-01      50    3    1        -0.5897484165E-03      0.6440593763E-02
          0                 3           2            52    1     1       0.1801936526E-02      52    4    1        -0.5999311889E-04      0.6339982003E-03
          0                 4           2            52    1     1      -0.1389830424E-03      52    4    1         0.6296550767E-05      0.5657146149E-04
          0                 5           1            52    1     1       0.9532715215E-05      52    4    1        -0.4947826719E-06      0.4363597256E-05
          0                 6           1            52    1     1      -0.5627207555E-06      68    4    1        -0.3360494105E-07      0.2807821702E-06

    ------------------------------------------------
       NWT REQUIRED            6 OUTER ITERATIONS 
       AND A TOTAL OF         11 INNER ITERATIONS.
    ------------------------------------------------

 NO OUTPUT CONTROL FOR STRESS PERIOD   11   TIME STEP   24
 
 SOLVING FOR HEAD 
                                                   Max.-Head-Change                         Max.-Flux-Residual
  Residual-Control   Outer-Iter.   Inner-Iter.     Column Row Layer    Maximum-Head-Change  Column Row Layer    Maximum-Flux-Residual          L2-NORM 
          0                 1           3            52    1     1       0.2483425337E+00      52    2    1         0.5385563727E-02      0.6483076893E-01
          0                 2           2            52    1     1      -0.2278449837E-01      50    3    1        -0.5524157909E-03      0.6372174459E-02
          0                 3           2            52    1     1       0.1923846105E-02      52    4    1        -0.6048191143E-04      0.6273156193E-03
          0                 4           2            52    1     1      -0.1476843729E-03      52    4    1         0.6437162917E-05      0.5614451756E-04
          0                 5           1            52    1     1       0.1009128963E-04      52    4    1        -0.5117925366E-06      0.4350491142E-05
          0                 6           1            52    1     1      -0.5923962676E-06      68    4    1        -0.3406870874E-07      0.2803775225E-06

    ------------------------------------------------
       NWT REQUIRED            6 OUTER ITERATIONS 
       AND A TOTAL OF         11 INNER ITERATIONS.
    ------------------------------------------------

 NO OUTPUT CONTROL FOR STRESS PERIOD   11   TIME STEP   25
 
 SOLVING FOR HEAD 
                                                   Max.-Head-Change                         Max.-Flux-Residual
  Residual-Control   Outer-Iter.   Inner-Iter.     Column Row Layer    Maximum-Head-Change  Column Row Layer    Maximum-Flux-Residual          L2-NORM 
          0                 1           3            52    1     1       0.2651130693E+00      52    1    1         0.5273274782E-02      0.6397876392E-01
          0                 2           2            52    1     1      -0.2422530037E-01      52    2    1        -0.5302829056E-03      0.6287271263E-02
          0                 3           2            52    1     1       0.2033866630E-02      52    4    1        -0.5996092360E-04      0.6185253885E-03
          0                 4           2            52    1     1      -0.1553108705E-03      52    4    1         0.6482244055E-05      0.5549046146E-04
          0                 5           1            52    1     1       0.1056608241E-04      52    4    1        -0.5217597392E-06      0.4317960747E-05
          0                 6           1            52    1     1      -0.6164037136E-06      68    4    1        -0.3474173305E-07      0.2785253541E-06

    ------------------------------------------------
       NWT REQUIRED            6 OUTER ITERATIONS 
       AND A TOTAL OF         11 INNER ITERATIONS.
    ------------------------------------------------

 NO OUTPUT CONTROL FOR STRESS PERIOD   11   TIME STEP   26
 
 SOLVING FOR HEAD 
                                                   Max.-Head-Change                         Max.-Flux-Residual
  Residual-Control   Outer-Iter.   Inner-Iter.     Column Row Layer    Maximum-Head-Change  Column Row Layer    Maximum-Flux-Residual          L2-NORM 
          0                 1           3            52    1     1       0.2805432873E+00      52    1    1         0.5119305222E-02      0.6301757684E-01
          0                 2           2            52    1     1      -0.2553453171E-01      52    2    1        -0.5152566243E-03      0.6190567572E-02
          0                 3           2            52    1     1       0.2131334936E-02      52    4    1        -0.5880682542E-04      0.6085367383E-03
          0                 4           2            52    1     1      -0.1618406269E-03      52    4    1         0.6454976901E-05      0.5471132233E-04
          0                 5           1            52    1     1       0.1095546926E-04      52    4    1        -0.5259082743E-06      0.4274181278E-05
          0                 6           1            53    7     1      -0.6338242339E-06      68    4    1        -0.3458485764E-07      0.2754956228E-06

    ------------------------------------------------
       NWT REQUIRED            6 OUTER ITERATIONS 
       AND A TOTAL OF         11 INNER ITERATIONS.
    ------------------------------------------------

 NO OUTPUT CONTROL FOR STRESS PERIOD   11   TIME STEP   27
 
 SOLVING FOR HEAD 
                                                   Max.-Head-Change                         Max.-Flux-Residual
  Residual-Control   Outer-Iter.   Inner-Iter.     Column Row Layer    Maximum-Head-Change  Column Row Layer    Maximum-Flux-Residual          L2-NORM 
          0                 1           3            52    1     1       0.2932619156E+00      52    1    1         0.4926357124E-02      0.6189297067E-01
          0                 2           3            52    1     1      -0.2667505880E-01      52    2    1        -0.4966583388E-03      0.6085923403E-02
          0                 3           2            52    1     1       0.2217347960E-02      52    4    1        -0.5654027142E-04      0.5973720981E-03
          0                 4           2            52    1     1      -0.1674851496E-03      52    4    1         0.6297422299E-05      0.5377988240E-04
          0                 5           1            52    1     1       0.1127349180E-04      52    4    1        -0.5204836178E-06      0.4216690813E-05
          0                 6           1            53    7     1      -0.6467040360E-06      52    4    1         0.3423691175E-07      0.2711929390E-06

    ------------------------------------------------
       NWT REQUIRED            6 OUTER ITERATIONS 
       AND A TOTAL OF         12 INNER ITERATIONS.
    ------------------------------------------------

 NO OUTPUT CONTROL FOR STRESS PERIOD   11   TIME STEP   28
 
 SOLVING FOR HEAD 
                                                   Max.-Head-Change                         Max.-Flux-Residual
  Residual-Control   Outer-Iter.   Inner-Iter.     Column Row Layer    Maximum-Head-Change  Column Row Layer    Maximum-Flux-Residual          L2-NORM 
          0                 1           3            52    1     1       0.3021824319E+00      52    1    1         0.4681682421E-02      0.6060350308E-01
          0                 2           3            52    1     1      -0.2747362227E-01      52    1    1        -0.4728025375E-03      0.5960975949E-02
          0                 3           2            52    1     1       0.2274974277E-02      52    4    1        -0.5343879930E-04      0.5843731609E-03
          0                 4           2            52    1     1      -0.1709555919E-03      52    4    1         0.6031460849E-05      0.5268526207E-04
          0                 5           1            52    1     1       0.1143907001E-04      52    4    1        -0.5052157110E-06      0.4145644251E-05
          0                 6           1            53    7     1      -0.6494733966E-06      68    4    1        -0.3420845296E-07      0.2655711519E-06

    ------------------------------------------------
       NWT REQUIRED            6 OUTER ITERATIONS 
       AND A TOTAL OF         12 INNER ITERATIONS.
    ------------------------------------------------

 NO OUTPUT CONTROL FOR STRESS PERIOD   11   TIME STEP   29
 
 SOLVING FOR HEAD 
                                                   Max.-Head-Change                         Max.-Flux-Residual
  Residual-Control   Outer-Iter.   Inner-Iter.     Column Row Layer    Maximum-Head-Change  Column Row Layer    Maximum-Flux-Residual          L2-NORM 
          0                 1           3            52    1     1       0.3070015663E+00      52    1    1         0.4385608335E-02      0.5921313682E-01
          0                 2           3            52    1     1      -0.2789023225E-01      52    1    1        -0.4436188672E-03      0.5821212174E-02
          0                 3           2            52    1     1       0.2300614240E-02      52    4    1        -0.4947437906E-04      0.5698285289E-03
          0                 4           2            52    1     1      -0.1719864102E-03      52    4    1         0.5665618020E-05      0.5143343380E-04
          0                 5           1            52    1     1       0.1143600208E-04      52    4    1        -0.4809841667E-06      0.4060753947E-05
          0                 6           1            53    7     1      -0.6411630448E-06      68    4    1        -0.3353254208E-07      0.2585678858E-06

    ------------------------------------------------
       NWT REQUIRED            6 OUTER ITERATIONS 
       AND A TOTAL OF         12 INNER ITERATIONS.
    ------------------------------------------------

 NO OUTPUT CONTROL FOR STRESS PERIOD   11   TIME STEP   30



 STREAM LISTING     PERIOD     11   STEP       30

 LAYER ROW COL. STREAM  RCH.   FLOW INTO    STREAM     FLOW OUT OF   OVRLND.    DIRECT     STREAM      STREAM      STREAM     STREAM  STREAMBED   FLOW TO   CHNG. UNSAT. 
                SEG.NO.  NO.   STRM. RCH.    LOSS       STRM. RCH.   RUNOFF     PRECIP       ET         HEAD        DEPTH      WIDTH  CONDCTNC.   WAT. TAB.

   1    4    1     1     1    3.3840E+00  1.2828E-03   3.3827E+00  0.000E+00  0.000E+00  0.000E+00  1.41228E+02  1.378E+00  3.461E+00  6.832E-04  1.539E-03 -2.566E-04
   1    4    2     1     2    3.3827E+00  1.2825E-03   3.3814E+00  0.000E+00  0.000E+00  0.000E+00  1.40927E+02  1.377E+00  3.460E+00  6.831E-04  1.529E-03 -2.466E-04
   1    4    3     1     3    3.3814E+00  1.2821E-03   3.3802E+00  0.000E+00  0.000E+00  0.000E+00  1.40627E+02  1.377E+00  3.460E+00  6.830E-04  1.519E-03 -2.372E-04
   1    4    4     1     4    3.3802E+00  1.2818E-03   3.3789E+00  0.000E+00  0.000E+00  0.000E+00  1.40327E+02  1.377E+00  3.460E+00  6.829E-04  1.518E-03 -2.358E-04
   1    4    5     1     5    3.3789E+00  1.2814E-03   3.3776E+00  0.000E+00  0.000E+00  0.000E+00  1.40027E+02  1.377E+00  3.460E+00  6.828E-04  1.516E-03 -2.341E-04
   1    4    6     1     6    3.3776E+00  1.2811E-03   3.3763E+00  0.000E+00  0.000E+00  0.000E+00  1.39726E+02  1.376E+00  3.459E+00  6.828E-04  1.513E-03 -2.321E-04
   1    4    7     1     7    3.3763E+00  1.2807E-03   3.3750E+00  0.000E+00  0.000E+00  0.000E+00  1.39426E+02  1.376E+00  3.459E+00  6.827E-04  1.510E-03 -2.297E-04
   1    4    8     1     8    3.3750E+00  1.2804E-03   3.3737E+00  0.000E+00  0.000E+00  0.000E+00  1.39126E+02  1.376E+00  3.459E+00  6.826E-04  1.507E-03 -2.270E-04
   1    4    9     1     9    3.3737E+00  1.2800E-03   3.3725E+00  0.000E+00  0.000E+00  0.000E+00  1.38826E+02  1.376E+00  3.458E+00  6.825E-04  1.504E-03 -2.239E-04
   1    4   10     1    10    3.3725E+00  1.2797E-03   3.3712E+00  0.000E+00  0.000E+00  0.000E+00  1.38525E+02  1.375E+00  3.458E+00  6.824E-04  1.500E-03 -2.205E-04
   1    4   11     1    11    3.3712E+00  1.2793E-03   3.3699E+00  0.000E+00  0.000E+00  0.000E+00  1.38225E+02  1.375E+00  3.458E+00  6.823E-04  1.496E-03 -2.168E-04
   1    4   12     1    12    3.3699E+00  1.2790E-03   3.3686E+00  0.000E+00  0.000E+00  0.000E+00  1.37925E+02  1.375E+00  3.457E+00  6.822E-04  1.492E-03 -2.127E-04
   1    4   13     1    13    3.3686E+00  1.2786E-03   3.3674E+00  0.000E+00  0.000E+00  0.000E+00  1.37624E+02  1.374E+00  3.457E+00  6.821E-04  1.487E-03 -2.083E-04
   1    4   14     1    14    3.3674E+00  1.2783E-03   3.3661E+00  0.000E+00  0.000E+00  0.000E+00  1.37324E+02  1.374E+00  3.457E+00  6.821E-04  1.482E-03 -2.035E-04
   1    4   15     1    15    3.3661E+00  1.2779E-03   3.3648E+00  0.000E+00  0.000E+00  0.000E+00  1.37024E+02  1.374E+00  3.456E+00  6.820E-04  1.476E-03 -1.983E-04
   1    4   16     1    16    3.3648E+00  1.2776E-03   3.3635E+00  0.000E+00  0.000E+00  0.000E+00  1.36724E+02  1.374E+00  3.456E+00  6.819E-04  1.470E-03 -1.928E-04
   1    4   17     1    17    3.3635E+00  1.2772E-03   3.3622E+00  0.000E+00  0.000E+00  0.000E+00  1.36423E+02  1.373E+00  3.456E+00  6.818E-04  1.464E-03 -1.870E-04
   1    4   18     1    18    3.3622E+00  1.2769E-03   3.3610E+00  0.000E+00  0.000E+00  0.000E+00  1.36123E+02  1.373E+00  3.455E+00  6.817E-04  1.458E-03 -1.809E-04
   1    4   19     1    19    3.3610E+00  1.2765E-03   3.3597E+00  0.000E+00  0.000E+00  0.000E+00  1.35823E+02  1.373E+00  3.455E+00  6.816E-04  1.460E-03 -1.836E-04
   1    4   20     1    20    3.3597E+00  1.2762E-03   3.3584E+00  0.000E+00  0.000E+00  0.000E+00  1.35523E+02  1.373E+00  3.455E+00  6.815E-04  1.465E-03 -1.890E-04
   1    4   21     1    21    3.3584E+00  1.2758E-03   3.3571E+00  0.000E+00  0.000E+00  0.000E+00  1.35222E+02  1.372E+00  3.454E+00  6.814E-04  1.472E-03 -1.961E-04
   1    4   22     1    22    3.3571E+00  1.2755E-03   3.3559E+00  0.000E+00  0.000E+00  0.000E+00  1.34922E+02  1.372E+00  3.454E+00  6.813E-04  1.480E-03 -2.048E-04
   1    4   23     1    23    3.3559E+00  1.2751E-03   3.3546E+00  0.000E+00  0.000E+00  0.000E+00  1.34622E+02  1.372E+00  3.454E+00  6.813E-04  1.476E-03 -2.008E-04
   1    4   24     1    24    3.3546E+00  1.2748E-03   3.3533E+00  0.000E+00  0.000E+00  0.000E+00  1.34321E+02  1.371E+00  3.453E+00  6.812E-04  1.467E-03 -1.927E-04
   1    4   25     1    25    3.3533E+00  1.2744E-03   3.3520E+00  0.000E+00  0.000E+00  0.000E+00  1.34021E+02  1.371E+00  3.453E+00  6.811E-04  1.459E-03 -1.844E-04
   1    4   26     1    26    3.3520E+00  1.2741E-03   3.3508E+00  0.000E+00  0.000E+00  0.000E+00  1.33721E+02  1.371E+00  3.453E+00  6.810E-04  1.450E-03 -1.760E-04
   1    4   27     1    27    3.3508E+00  1.2737E-03   3.3495E+00  0.000E+00  0.000E+00  0.000E+00  1.33421E+02  1.371E+00  3.452E+00  6.809E-04  1.441E-03 -1.675E-04
   1    4   28     1    28    3.3495E+00  1.2734E-03   3.3482E+00  0.000E+00  0.000E+00  0.000E+00  1.33120E+02  1.370E+00  3.452E+00  6.808E-04  1.432E-03 -1.588E-04
   1    4   29     1    29    3.3482E+00  1.2730E-03   3.3469E+00  0.000E+00  0.000E+00  0.000E+00  1.32820E+02  1.370E+00  3.452E+00  6.807E-04  1.454E-03 -1.814E-04
   1    4   30     1    30    3.3469E+00  1.2727E-03   3.3457E+00  0.000E+00  0.000E+00  0.000E+00  1.32520E+02  1.370E+00  3.451E+00  6.806E-04  1.453E-03 -1.801E-04
   1    4   31     1    31    3.3457E+00  1.2723E-03   3.3444E+00  0.000E+00  0.000E+00  0.000E+00  1.32220E+02  1.370E+00  3.451E+00  6.806E-04  1.444E-03 -1.718E-04
   1    4   32     1    32    3.3444E+00  1.2720E-03   3.3431E+00  0.000E+00  0.000E+00  0.000E+00  1.31919E+02  1.369E+00  3.451E+00  6.805E-04  1.456E-03 -1.836E-04
   1    4   33     1    33    3.3431E+00  1.2716E-03   3.3419E+00  0.000E+00  0.000E+00  0.000E+00  1.31619E+02  1.369E+00  3.450E+00  6.804E-04  1.483E-03 -2.115E-04
   1    4   34     1    34    3.3419E+00  1.2713E-03   3.3406E+00  0.000E+00  0.000E+00  0.000E+00  1.31319E+02  1.369E+00  3.450E+00  6.803E-04  1.515E-03 -2.434E-04
   1    4   35     1    35    3.3406E+00  1.2709E-03   3.3393E+00  0.000E+00  0.000E+00  0.000E+00  1.31018E+02  1.368E+00  3.450E+00  6.802E-04  1.560E-03 -2.887E-04
   1    4   36     1    36    3.3393E+00  1.2706E-03   3.3380E+00  0.000E+00  0.000E+00  0.000E+00  1.30718E+02  1.368E+00  3.449E+00  6.801E-04  1.583E-03 -3.126E-04
   1    4   37     1    37    3.3380E+00  1.2702E-03   3.3368E+00  0.000E+00  0.000E+00  0.000E+00  1.30418E+02  1.368E+00  3.449E+00  6.800E-04  1.581E-03 -3.109E-04
   1    4   38     1    38    3.3368E+00  1.2699E-03   3.3355E+00  0.000E+00  0.000E+00  0.000E+00  1.30118E+02  1.368E+00  3.449E+00  6.799E-04  1.590E-03 -3.205E-04
   1    4   39     1    39    3.3355E+00  1.2695E-03   3.3342E+00  0.000E+00  0.000E+00  0.000E+00  1.29817E+02  1.367E+00  3.449E+00  6.798E-04  1.628E-03 -3.587E-04
   1    4   40     1    40    3.3342E+00  1.2692E-03   3.3330E+00  0.000E+00  0.000E+00  0.000E+00  1.29517E+02  1.367E+00  3.448E+00  6.798E-04  1.635E-03 -3.655E-04
   1    4   41     1    41    3.3330E+00  1.2689E-03   3.3317E+00  0.000E+00  0.000E+00  0.000E+00  1.29217E+02  1.367E+00  3.448E+00  6.797E-04  1.723E-03 -4.541E-04
   1    4   42     1    42    3.3317E+00  1.2685E-03   3.3304E+00  0.000E+00  0.000E+00  0.000E+00  1.28917E+02  1.367E+00  3.448E+00  6.796E-04  1.826E-03 -5.570E-04
   1    4   43     1    43    3.3304E+00  1.2682E-03   3.3292E+00  0.000E+00  0.000E+00  0.000E+00  1.28616E+02  1.366E+00  3.447E+00  6.795E-04  1.884E-03 -6.157E-04
   1    4   44     1    44    3.3292E+00  1.2678E-03   3.3279E+00  0.000E+00  0.000E+00  0.000E+00  1.28316E+02  1.366E+00  3.447E+00  6.794E-04  1.963E-03 -6.947E-04
   1    4   45     1    45    3.3279E+00  1.2675E-03   3.3266E+00  0.000E+00  0.000E+00  0.000E+00  1.28016E+02  1.366E+00  3.447E+00  6.793E-04  2.056E-03 -7.881E-04
   1    4   46     1    46    3.3266E+00  1.2671E-03   3.3254E+00  0.000E+00  0.000E+00  0.000E+00  1.27716E+02  1.366E+00  3.446E+00  6.792E-04  2.154E-03 -8.871E-04
   1    4   47     1    47    3.3254E+00  1.2668E-03   3.3241E+00  0.000E+00  0.000E+00  0.000E+00  1.27415E+02  1.365E+00  3.446E+00  6.791E-04  2.410E-03 -1.143E-03
   1    4   48     1    48    3.3241E+00  1.2664E-03   3.3228E+00  0.000E+00  0.000E+00  0.000E+00  1.27115E+02  1.365E+00  3.446E+00  6.791E-04  2.605E-03 -1.337E-03
   1    4   49     1    49    3.3228E+00  1.2661E-03   3.3216E+00  0.000E+00  0.000E+00  0.000E+00  1.26815E+02  1.365E+00  3.445E+00  6.790E-04  2.931E-03 -1.662E-03
   1    4   50     1    50    3.3216E+00  1.2657E-03   3.3203E+00  0.000E+00  0.000E+00  0.000E+00  1.26514E+02  1.364E+00  3.445E+00  6.789E-04  3.310E-03 -2.042E-03
   1    4   51     1    51    3.3203E+00  1.2654E-03   3.3190E+00  0.000E+00  0.000E+00  0.000E+00  1.26214E+02  1.364E+00  3.445E+00  6.788E-04  3.373E-03 -2.105E-03
   1    4   52     1    52    3.3190E+00  1.2650E-03   3.3178E+00  0.000E+00  0.000E+00  0.000E+00  1.25914E+02  1.364E+00  3.444E+00  6.787E-04  3.414E-03 -2.146E-03
   1    4   53     1    53    3.3178E+00  1.2647E-03   3.3165E+00  0.000E+00  0.000E+00  0.000E+00  1.25614E+02  1.364E+00  3.444E+00  6.786E-04  3.407E-03 -2.140E-03
   1    4   54     1    54    3.3165E+00  1.2643E-03   3.3152E+00  0.000E+00  0.000E+00  0.000E+00  1.25313E+02  1.363E+00  3.444E+00  6.785E-04  3.351E-03 -2.084E-03
   1    4   55     1    55    3.3152E+00  1.2640E-03   3.3140E+00  0.000E+00  0.000E+00  0.000E+00  1.25013E+02  1.363E+00  3.443E+00  6.784E-04  3.271E-03 -2.004E-03
   1    4   56     1    56    3.3140E+00  1.2636E-03   3.3127E+00  0.000E+00  0.000E+00  0.000E+00  1.24713E+02  1.363E+00  3.443E+00  6.783E-04  2.865E-03 -1.599E-03
   1    4   57     1    57    3.3127E+00  1.2633E-03   3.3114E+00  0.000E+00  0.000E+00  0.000E+00  1.24413E+02  1.363E+00  3.443E+00  6.783E-04  2.542E-03 -1.278E-03
   1    4   58     1    58    3.3114E+00  1.2629E-03   3.3102E+00  0.000E+00  0.000E+00  0.000E+00  1.24112E+02  1.362E+00  3.442E+00  6.782E-04  2.295E-03 -1.032E-03
   1    4   59     1    59    3.3102E+00  1.2626E-03   3.3089E+00  0.000E+00  0.000E+00  0.000E+00  1.23812E+02  1.362E+00  3.442E+00  6.781E-04  2.078E-03 -8.155E-04
   1    4   60     1    60    3.3089E+00  1.2622E-03   3.3076E+00  0.000E+00  0.000E+00  0.000E+00  1.23512E+02  1.362E+00  3.442E+00  6.780E-04  1.968E-03 -7.060E-04
   1    4   61     1    61    3.3076E+00  1.2619E-03   3.3064E+00  0.000E+00  0.000E+00  0.000E+00  1.23211E+02  1.361E+00  3.441E+00  6.779E-04  1.865E-03 -6.033E-04
   1    4   62     1    62    3.3064E+00  1.2616E-03   3.3051E+00  0.000E+00  0.000E+00  0.000E+00  1.22911E+02  1.361E+00  3.441E+00  6.778E-04  1.814E-03 -5.525E-04
   1    4   63     1    63    3.3051E+00  1.2612E-03   3.3039E+00  0.000E+00  0.000E+00  0.000E+00  1.22611E+02  1.361E+00  3.441E+00  6.777E-04  1.676E-03 -4.151E-04
   1    4   64     1    64    3.3039E+00  1.2609E-03   3.3026E+00  0.000E+00  0.000E+00  0.000E+00  1.22311E+02  1.361E+00  3.440E+00  6.776E-04  1.550E-03 -2.887E-04
   1    4   65     1    65    3.3026E+00  1.2605E-03   3.3013E+00  0.000E+00  0.000E+00  0.000E+00  1.22010E+02  1.360E+00  3.440E+00  6.776E-04  1.534E-03 -2.739E-04
   1    4   66     1    66    3.3013E+00  1.2602E-03   3.3001E+00  0.000E+00  0.000E+00  0.000E+00  1.21710E+02  1.360E+00  3.440E+00  6.775E-04  1.523E-03 -2.631E-04
   1    4   67     1    67    3.3001E+00  1.2598E-03   3.2988E+00  0.000E+00  0.000E+00  0.000E+00  1.21410E+02  1.360E+00  3.439E+00  6.774E-04  1.506E-03 -2.459E-04
   1    4   68     1    68    3.2988E+00  1.2595E-03   3.2976E+00  0.000E+00  0.000E+00  0.000E+00  1.21110E+02  1.360E+00  3.439E+00  6.773E-04  1.471E-03 -2.120E-04
   1    4   69     1    69    3.2976E+00  1.2591E-03   3.2963E+00  0.000E+00  0.000E+00  0.000E+00  1.20809E+02  1.359E+00  3.439E+00  6.772E-04  1.386E-03 -1.265E-04
   1    4   70     1    70    3.2963E+00  1.2588E-03   3.2950E+00  0.000E+00  0.000E+00  0.000E+00  1.20509E+02  1.359E+00  3.438E+00  6.771E-04  1.337E-03 -7.808E-05
   1    4   71     1    71    3.2950E+00  1.2584E-03   3.2938E+00  0.000E+00  0.000E+00  0.000E+00  1.20209E+02  1.359E+00  3.438E+00  6.770E-04  1.314E-03 -5.547E-05
   1    4   72     1    72    3.2938E+00  1.2581E-03   3.2925E+00  0.000E+00  0.000E+00  0.000E+00  1.19909E+02  1.359E+00  3.438E+00  6.769E-04  1.317E-03 -5.900E-05
   1    4   73     1    73    3.2925E+00  1.2577E-03   3.2913E+00  0.000E+00  0.000E+00  0.000E+00  1.19608E+02  1.358E+00  3.438E+00  6.769E-04  1.321E-03 -6.353E-05
   1    4   74     1    74    3.2913E+00  1.2574E-03   3.2900E+00  0.000E+00  0.000E+00  0.000E+00  1.19308E+02  1.358E+00  3.437E+00  6.768E-04  1.326E-03 -6.869E-05
   1    4   75     1    75    3.2900E+00  1.2571E-03   3.2888E+00  0.000E+00  0.000E+00  0.000E+00  1.19008E+02  1.358E+00  3.437E+00  6.767E-04  1.332E-03 -7.446E-05
   1    4   76     1    76    3.2888E+00  1.2567E-03   3.2875E+00  0.000E+00  0.000E+00  0.000E+00  1.18707E+02  1.357E+00  3.437E+00  6.766E-04  1.337E-03 -8.067E-05
   1    4   77     1    77    3.2875E+00  1.2564E-03   3.2862E+00  0.000E+00  0.000E+00  0.000E+00  1.18407E+02  1.357E+00  3.436E+00  6.765E-04  1.320E-03 -6.355E-05
   1    4   78     1    78    3.2862E+00  1.2560E-03   3.2850E+00  0.000E+00  0.000E+00  0.000E+00  1.18107E+02  1.357E+00  3.436E+00  6.764E-04  1.300E-03 -4.378E-05
   1    4   79     1    79    3.2850E+00  1.2557E-03   3.2837E+00  0.000E+00  0.000E+00  0.000E+00  1.17807E+02  1.357E+00  3.436E+00  6.763E-04  1.283E-03 -2.723E-05
   1    4   80     1    80    3.2837E+00  1.2553E-03   3.2825E+00  0.000E+00  0.000E+00  0.000E+00  1.17506E+02  1.356E+00  3.435E+00  6.762E-04  1.289E-03 -3.407E-05
   1    4   81     1    81    3.2825E+00  1.2550E-03   3.2812E+00  0.000E+00  0.000E+00  0.000E+00  1.17206E+02  1.356E+00  3.435E+00  6.761E-04  1.297E-03 -4.155E-05
   1    4   82     1    82    3.2812E+00  1.2546E-03   3.2800E+00  0.000E+00  0.000E+00  0.000E+00  1.16906E+02  1.356E+00  3.435E+00  6.761E-04  1.304E-03 -4.915E-05
   1    4   83     1    83    3.2800E+00  1.2543E-03   3.2787E+00  0.000E+00  0.000E+00  0.000E+00  1.16606E+02  1.356E+00  3.434E+00  6.760E-04  1.311E-03 -5.686E-05
   1    4   84     1    84    3.2787E+00  1.2539E-03   3.2775E+00  0.000E+00  0.000E+00  0.000E+00  1.16305E+02  1.355E+00  3.434E+00  6.759E-04  1.319E-03 -6.470E-05
   1    4   85     1    85    3.2775E+00  1.2536E-03   3.2762E+00  0.000E+00  0.000E+00  0.000E+00  1.16005E+02  1.355E+00  3.434E+00  6.758E-04  1.326E-03 -7.270E-05
   1    4   86     1    86    3.2762E+00  1.2533E-03   3.2750E+00  0.000E+00  0.000E+00  0.000E+00  1.15705E+02  1.355E+00  3.433E+00  6.757E-04  1.334E-03 -8.087E-05
   1    4   87     1    87    3.2750E+00  1.2529E-03   3.2737E+00  0.000E+00  0.000E+00  0.000E+00  1.15404E+02  1.354E+00  3.433E+00  6.756E-04  1.342E-03 -8.926E-05
   1    4   88     1    88    3.2737E+00  1.2526E-03   3.2724E+00  0.000E+00  0.000E+00  0.000E+00  1.15104E+02  1.354E+00  3.433E+00  6.755E-04  1.350E-03 -9.791E-05
   1    4   89     1    89    3.2724E+00  1.2522E-03   3.2712E+00  0.000E+00  0.000E+00  0.000E+00  1.14804E+02  1.354E+00  3.432E+00  6.754E-04  1.359E-03 -1.069E-04
   1    4   90     1    90    3.2712E+00  1.2519E-03   3.2699E+00  0.000E+00  0.000E+00  0.000E+00  1.14504E+02  1.354E+00  3.432E+00  6.754E-04  1.368E-03 -1.162E-04
   1    4   91     1    91    3.2699E+00  1.2515E-03   3.2687E+00  0.000E+00  0.000E+00  0.000E+00  1.14203E+02  1.353E+00  3.432E+00  6.753E-04  1.377E-03 -1.259E-04
   1    4   92     1    92    3.2687E+00  1.2512E-03   3.2674E+00  0.000E+00  0.000E+00  0.000E+00  1.13903E+02  1.353E+00  3.431E+00  6.752E-04  1.387E-03 -1.361E-04
   1    4   93     1    93    3.2674E+00  1.2508E-03   3.2662E+00  0.000E+00  0.000E+00  0.000E+00  1.13603E+02  1.353E+00  3.431E+00  6.751E-04  1.431E-03 -1.798E-04
   1    4   94     1    94    3.2662E+00  1.2505E-03   3.2649E+00  0.000E+00  0.000E+00  0.000E+00  1.13303E+02  1.353E+00  3.431E+00  6.750E-04  1.475E-03 -2.242E-04
   1    4   95     1    95    3.2649E+00  1.2502E-03   3.2637E+00  0.000E+00  0.000E+00  0.000E+00  1.13002E+02  1.352E+00  3.430E+00  6.749E-04  1.502E-03 -2.518E-04
   1    4   96     1    96    3.2637E+00  1.2498E-03   3.2624E+00  0.000E+00  0.000E+00  0.000E+00  1.12702E+02  1.352E+00  3.430E+00  6.748E-04  1.516E-03 -2.659E-04
   1    4   97     1    97    3.2624E+00  1.2495E-03   3.2612E+00  0.000E+00  0.000E+00  0.000E+00  1.12402E+02  1.352E+00  3.430E+00  6.747E-04  1.530E-03 -2.809E-04
   1    4   98     1    98    3.2612E+00  1.2491E-03   3.2599E+00  0.000E+00  0.000E+00  0.000E+00  1.12102E+02  1.352E+00  3.429E+00  6.747E-04  1.546E-03 -2.969E-04
   1    4   99     1    99    3.2599E+00  1.2488E-03   3.2587E+00  0.000E+00  0.000E+00  0.000E+00  1.11801E+02  1.351E+00  3.429E+00  6.746E-04  1.563E-03 -3.139E-04
   1    4  100     1   100    3.2587E+00  1.2484E-03   3.2574E+00  0.000E+00  0.000E+00  0.000E+00  1.11501E+02  1.351E+00  3.429E+00  6.745E-04  1.580E-03 -3.317E-04



1
  VOLUMETRIC BUDGET FOR UNSATURATED ZONE BENEATH STREAMS AT END OF TIME STEP    30 STRESS PERIOD  11
  ------------------------------------------------------------------------------------------------

    CUMULATIVE VOLUMES             L**3    RATES FOR THIS TIME STEP         L**3/T
    ------------------                     ------------------------


          STREAM LOSS =     12791121.0000            STREAM LOSS =            0.1266
    CHANGE IN STORAGE =      1193195.2500      CHANGE IN STORAGE =       -4.1828E-02
       RECHARGE TO GW =     11601924.0000         RECHARGE TO GW =            0.1684

             TOTAL IN =     12791121.0000               TOTAL IN =            0.1684

            TOTAL OUT =     12795119.0000              TOTAL OUT =            0.1684

             IN - OUT =        -3998.0000               IN - OUT =       -2.3693E-05

  PERCENT DISCREPANCY =           -0.01      PERCENT DISCREPANCY =            -0.00



1
  VOLUMETRIC BUDGET FOR ENTIRE MODEL AT END OF TIME STEP   30, STRESS PERIOD  11
  ------------------------------------------------------------------------------

     CUMULATIVE VOLUMES      L**3       RATES FOR THIS TIME STEP      L**3/T
     ------------------                 ------------------------

           IN:                                      IN:
           ---                                      ---
             STORAGE     =    60783252.0000               STORAGE     =           1.1990
       CONSTANT HEAD     =           0.0000         CONSTANT HEAD     =           0.0000
               WELLS     =           0.0000                 WELLS     =           0.0000
     HEAD DEP BOUNDS     =           0.0000       HEAD DEP BOUNDS     =           0.0000
      STREAM LEAKAGE     =    11601947.0000        STREAM LEAKAGE     =           0.1684

                TOTAL IN =    72385200.0000                  TOTAL IN =           1.3674

          OUT:                                     OUT:
          ----                                     ----
             STORAGE     =     2196989.0000               STORAGE     =           0.1611
       CONSTANT HEAD     =           0.0000         CONSTANT HEAD     =           0.0000
               WELLS     =    57531528.0000                 WELLS     =           1.0000
     HEAD DEP BOUNDS     =    12656684.0000       HEAD DEP BOUNDS     =           0.2063
      STREAM LEAKAGE     =           0.0000        STREAM LEAKAGE     =           0.0000

               TOTAL OUT =    72385200.0000                 TOTAL OUT =           1.3674

                IN - OUT =           0.0000                  IN - OUT =      -1.1921E-07

     PERCENT DISCREPANCY =           0.00         PERCENT DISCREPANCY =          -0.00






         TIME SUMMARY AT END OF TIME STEP   30 IN STRESS PERIOD   11
                    SECONDS     MINUTES      HOURS       DAYS        YEARS
                    -----------------------------------------------------------
   TIME STEP LENGTH 2.49961E+05  4166.0      69.434      2.8931     7.92080E-03
 STRESS PERIOD TIME 2.59200E+06  43200.      720.00      30.000     8.21355E-02
         TOTAL TIME 2.85120E+07 4.75200E+05  7920.0      330.00     0.90349    
1
1
                            STRESS PERIOD NO.   12, LENGTH =   2592000.    
                            -----------------------------------------------

                              NUMBER OF TIME STEPS =    30

                               MULTIPLIER FOR DELT =     1.100

                            INITIAL TIME STEP SIZE =   15757.40    

 REUSING NON-PARAMETER WELLS FROM LAST STRESS PERIOD

      1 WELL 

 REUSING NON-PARAMETER GHB CELLS FROM LAST STRESS PERIOD

      7 GHB CELLS



 CLASSIFICATION & COUNT OF STREAM SEGMENTS BASED ON SOURCE OF INFLOW:

                HEADWATER     DIVERSION     RECEIVES TRIBUTARY FLOW
                ---------     ---------     -----------------------
                     1              0               0



                    INPUT DATA FOR EACH STREAM SEGMENT
 ---------------------------------------------------------------------------------------------

 SEGMENT    SEG.     INFLOW   OVERLAND   STREAM    STREAM   ICALC  OUTFLOW  DIVERSION PRIORITY
    NO.    LENGTH     RATE     RUNOFF      ET       PPT.    METH.  TO SEG.  FROM SEG.    NO.

      1  2.000E+04 2.208E+00 0.000E+00 0.000E+00 0.000E+00    2        0        0        0


         STREAMBED PROPERTIES AND STREAM DIMENSIONS

 SEGMENT     BED HYD. COND.      BED THICKNESS     ELEV.-TOP OF BED     WIDTH OF STREAM     DEPTH OF STREAM    STREAM ROUGHNESS
    No.     UPPER     LOWER     UPPER     LOWER     UPPER     LOWER     UPPER     LOWER     UPPER     LOWER   CHANNEL      BANK

     1  3.500E-07 3.500E-07                                                                                 3.000E-02 4.000E-02

  EIGHT POINT CROSS-SECTION DATA FOR SEGMENTS WITH ICALC = 2
    X VALUES X VALUES START FROM LEFT SIDE LOOKING DOWNSTREAM

     SEGMENT NO.        X1        X2        X3        X4        X5        X6        X7        X8
            1      0.000E+00 2.000E+00 4.000E+00 6.000E+00 8.000E+00 1.000E+01 1.200E+01 1.400E+01

    Z VALUES ARE RELATIVE TO STREAMBED ELEVATION

     SEGMENT NO.          Z1        Z2        Z3        Z4        Z5        Z6        Z7        Z8
            1      6.000E+00 4.500E+00 3.500E+00 0.000E+00 3.000E-01 3.500E+00 4.500E+00 6.000E+00



 
 SOLVING FOR HEAD 
                                                   Max.-Head-Change                         Max.-Flux-Residual
  Residual-Control   Outer-Iter.   Inner-Iter.     Column Row Layer    Maximum-Head-Change  Column Row Layer    Maximum-Flux-Residual          L2-NORM 
          0                 1           2            55    5     1      -0.7605064440E+00      55    5    1        -0.2270295398E+00      0.3259933613E+00
          0                 2           2            55    5     1       0.7285706971E-01      55    5    1         0.2240566403E-01      0.3234916204E-01
          0                 3           2            55    5     1      -0.6460997690E-02      55    5    1        -0.2018180723E-02      0.2925922415E-02
          0                 4           2            55    5     1       0.5113648281E-03      55    5    1         0.1616460047E-03      0.2349019961E-03
          0                 5           1            55    5     1      -0.3558429469E-04      55    5    1        -0.1136361353E-04      0.1652960547E-04
          0                 6           1            55    5     1       0.2136063897E-05      55    5    1         0.6885898216E-06      0.1001911190E-05
          0                 7           1            55    5     1      -0.1079268737E-06      55    5    1        -0.3511126201E-07      0.5108887697E-07

    ------------------------------------------------
       NWT REQUIRED            7 OUTER ITERATIONS 
       AND A TOTAL OF         11 INNER ITERATIONS.
    ------------------------------------------------

 NO OUTPUT CONTROL FOR STRESS PERIOD   12   TIME STEP    1
 
 SOLVING FOR HEAD 
                                                   Max.-Head-Change                         Max.-Flux-Residual
  Residual-Control   Outer-Iter.   Inner-Iter.     Column Row Layer    Maximum-Head-Change  Column Row Layer    Maximum-Flux-Residual          L2-NORM 
          0                 1           2            55    5     1      -0.6013518215E+00      55    5    1        -0.1585092807E+00      0.2323309829E+00
          0                 2           2            55    5     1       0.5682905637E-01      55    5    1         0.1554756943E-01      0.2267360641E-01
          0                 3           2            55    5     1      -0.5067485823E-02      55    5    1        -0.1401496416E-02      0.2047563704E-02
          0                 4           2            55    5     1       0.3997585146E-03      55    5    1         0.1122425207E-03      0.1643880384E-03
          0                 5           1            55    5     1      -0.2769171631E-04      55    5    1        -0.7890641594E-05      0.1158152858E-04
          0                 6           1            55    5     1       0.1654148621E-05      55    5    1         0.4781412496E-06      0.7032440550E-06
          0                 7           1            55    5     1      -0.8318376997E-07      55    5    1        -0.2438047120E-07      0.3593383016E-07

    ------------------------------------------------
       NWT REQUIRED            7 OUTER ITERATIONS 
       AND A TOTAL OF         11 INNER ITERATIONS.
    ------------------------------------------------

 NO OUTPUT CONTROL FOR STRESS PERIOD   12   TIME STEP    2
 
 SOLVING FOR HEAD 
                                                   Max.-Head-Change                         Max.-Flux-Residual
  Residual-Control   Outer-Iter.   Inner-Iter.     Column Row Layer    Maximum-Head-Change  Column Row Layer    Maximum-Flux-Residual          L2-NORM 
          0                 1           2            55    5     1      -0.4899443899E+00      55    5    1        -0.1140168634E+00      0.1772124853E+00
          0                 2           2            55    5     1       0.4569605812E-01      55    5    1         0.1116311810E-01      0.1708492570E-01
          0                 3           2            55    5     1      -0.4065379515E-02      55    5    1        -0.1006515251E-02      0.1544898661E-02
          0                 4           2            55    5     1       0.3198899374E-03      55    5    1         0.8060767263E-04      0.1241415614E-03
          0                 5           1            55    5     1      -0.2210512477E-04      55    5    1        -0.5666724571E-05      0.8751571206E-05
          0                 6           1            55    5     1       0.1317340882E-05      55    5    1         0.3433807434E-06      0.5316646743E-06
          0                 7           1            55    5     1      -0.6609822798E-07      55    5    1        -0.1750902034E-07      0.2718063094E-07

    ------------------------------------------------
       NWT REQUIRED            7 OUTER ITERATIONS 
       AND A TOTAL OF         11 INNER ITERATIONS.
    ------------------------------------------------

 NO OUTPUT CONTROL FOR STRESS PERIOD   12   TIME STEP    3
 
 SOLVING FOR HEAD 
                                                   Max.-Head-Change                         Max.-Flux-Residual
  Residual-Control   Outer-Iter.   Inner-Iter.     Column Row Layer    Maximum-Head-Change  Column Row Layer    Maximum-Flux-Residual          L2-NORM 
          0                 1           2            55    5     1      -0.4109920183E+00      55    5    1        -0.8464064702E-01      0.1434050303E+00
          0                 2           2            55    5     1       0.3777487963E-01      55    5    1         0.8287086946E-02      0.1372685640E-01
          0                 3           2            55    5     1      -0.3253432997E-02      55    5    1        -0.7472035042E-03      0.1248689055E-02
          0                 4           2            55    5     1       0.2533983984E-03      55    5    1         0.5984283390E-04      0.1012973538E-03
          0                 5           1            55    5     1      -0.1749837295E-04      55    5    1        -0.4206933792E-05      0.7176881353E-05
          0                 6           1            55    5     1       0.1047174221E-05      55    5    1         0.2549233949E-06      0.4363923172E-06
          0                 7           1            55    5     1      -0.5286220212E-07      55    5    1        -0.1299857078E-07      0.2227655086E-07

    ------------------------------------------------
       NWT REQUIRED            7 OUTER ITERATIONS 
       AND A TOTAL OF         11 INNER ITERATIONS.
    ------------------------------------------------

 NO OUTPUT CONTROL FOR STRESS PERIOD   12   TIME STEP    4
 
 SOLVING FOR HEAD 
                                                   Max.-Head-Change                         Max.-Flux-Residual
  Residual-Control   Outer-Iter.   Inner-Iter.     Column Row Layer    Maximum-Head-Change  Column Row Layer    Maximum-Flux-Residual          L2-NORM 
          0                 1           2            55    5     1      -0.3530626466E+00      55    5    1        -0.6453626782E-01      0.1214065689E+00
          0                 2           2            55    5     1       0.3217299966E-01      55    5    1         0.6322898982E-02      0.1160685676E-01
          0                 3           2            55    5     1      -0.2753192245E-02      55    5    1        -0.5700860343E-03      0.1058633801E-02
          0                 4           2            55    5     1       0.2135378776E-03      55    5    1         0.4565778384E-04      0.8617771430E-04
          0                 5           1            55    5     1      -0.1470840520E-04      55    5    1        -0.3209727621E-05      0.6121585216E-05
          0                 6           1            55    5     1       0.8790510054E-06      55    5    1         0.1944966895E-06      0.3727787138E-06

    ------------------------------------------------
       NWT REQUIRED            6 OUTER ITERATIONS 
       AND A TOTAL OF         10 INNER ITERATIONS.
    ------------------------------------------------

 NO OUTPUT CONTROL FOR STRESS PERIOD   12   TIME STEP    5
 
 SOLVING FOR HEAD 
                                                   Max.-Head-Change                         Max.-Flux-Residual
  Residual-Control   Outer-Iter.   Inner-Iter.     Column Row Layer    Maximum-Head-Change  Column Row Layer    Maximum-Flux-Residual          L2-NORM 
          0                 1           2            55    5     1      -0.3105657172E+00      55    5    1        -0.5050066361E-01      0.1066375467E+00
          0                 2           2            55    5     1       0.2818802727E-01      55    5    1         0.4951342487E-02      0.1021727599E-01
          0                 3           2            55    5     1      -0.2399271751E-02      55    5    1        -0.4464114010E-03      0.9341282602E-03
          0                 4           2            55    5     1       0.1851864745E-03      55    5    1         0.3575280542E-04      0.7629886940E-04
          0                 5           1            55    5     1      -0.1270763049E-04      55    5    1        -0.2513410157E-05      0.5436662753E-05
          0                 6           1            55    5     1       0.7576269235E-06      55    5    1         0.1523026357E-06      0.3317845498E-06

    ------------------------------------------------
       NWT REQUIRED            6 OUTER ITERATIONS 
       AND A TOTAL OF         10 INNER ITERATIONS.
    ------------------------------------------------

 NO OUTPUT CONTROL FOR STRESS PERIOD   12   TIME STEP    6
 
 SOLVING FOR HEAD 
                                                   Max.-Head-Change                         Max.-Flux-Residual
  Residual-Control   Outer-Iter.   Inner-Iter.     Column Row Layer    Maximum-Head-Change  Column Row Layer    Maximum-Flux-Residual          L2-NORM 
          0                 1           2            55    5     1      -0.2786957761E+00      55    5    1        -0.4037890236E-01      0.9624361852E-01
          0                 2           2            55    5     1       0.2514353714E-01      55    5    1         0.3961224089E-02      0.9251165341E-02
          0                 3           2            55    5     1      -0.2128753277E-02      55    5    1        -0.3571248597E-03      0.8493198519E-03
          0                 4           2            55    5     1       0.1636553684E-03      55    5    1         0.2860204871E-04      0.6964365209E-04
          0                 5           1            55    5     1      -0.1119829396E-04      55    5    1        -0.2010713206E-05      0.4977449119E-05
          0                 6           1            55    5     1       0.6664152164E-06      55    5    1         0.1218412119E-06      0.3043794404E-06

    ------------------------------------------------
       NWT REQUIRED            6 OUTER ITERATIONS 
       AND A TOTAL OF         10 INNER ITERATIONS.
    ------------------------------------------------

 NO OUTPUT CONTROL FOR STRESS PERIOD   12   TIME STEP    7
 
 SOLVING FOR HEAD 
                                                   Max.-Head-Change                         Max.-Flux-Residual
  Residual-Control   Outer-Iter.   Inner-Iter.     Column Row Layer    Maximum-Head-Change  Column Row Layer    Maximum-Flux-Residual          L2-NORM 
          0                 1           2            55    5     1      -0.2541443897E+00      55    5    1        -0.3291568680E-01      0.8861140133E-01
          0                 2           2            55    5     1       0.2281919021E-01      55    5    1         0.3230150273E-02      0.8553692390E-02
          0                 3           2            55    5     1      -0.1923154989E-02      55    5    1        -0.2912023186E-03      0.7888549701E-03
          0                 4           2            55    5     1       0.1473189829E-03      55    5    1         0.2332244014E-04      0.6495636803E-04
          0                 5           1            55    5     1      -0.1005290177E-04      55    5    1        -0.1639557813E-05      0.4657674168E-05
          0                 6           1            55    5     1       0.5971086055E-06      55    5    1         0.9935067879E-07      0.2854827428E-06

    ------------------------------------------------
       NWT REQUIRED            6 OUTER ITERATIONS 
       AND A TOTAL OF         10 INNER ITERATIONS.
    ------------------------------------------------

 NO OUTPUT CONTROL FOR STRESS PERIOD   12   TIME STEP    8
 
 SOLVING FOR HEAD 
                                                   Max.-Head-Change                         Max.-Flux-Residual
  Residual-Control   Outer-Iter.   Inner-Iter.     Column Row Layer    Maximum-Head-Change  Column Row Layer    Maximum-Flux-Residual          L2-NORM 
          0                 1           2            55    5     1      -0.2358831158E+00      55    5    1        -0.2736000168E-01      0.8293705770E-01
          0                 2           2            55    5     1       0.2108426795E-01      55    5    1         0.2684945965E-02      0.8034441669E-02
          0                 3           2            55    5     1      -0.1769133762E-02      55    5    1        -0.2420471948E-03      0.7442587668E-03
          0                 4           2            55    5     1       0.1350375857E-03      55    5    1         0.1938565580E-04      0.6155913073E-04
          0                 5           1            55    5     1      -0.9189105360E-05      55    5    1        -0.1362802954E-05      0.4430152873E-05
          0                 6           1            55    5     1       0.5446735281E-06      55    5    1         0.8258044137E-07      0.2722631244E-06

    ------------------------------------------------
       NWT REQUIRED            6 OUTER ITERATIONS 
       AND A TOTAL OF         10 INNER ITERATIONS.
    ------------------------------------------------

 NO OUTPUT CONTROL FOR STRESS PERIOD   12   TIME STEP    9
 
 SOLVING FOR HEAD 
                                                   Max.-Head-Change                         Max.-Flux-Residual
  Residual-Control   Outer-Iter.   Inner-Iter.     Column Row Layer    Maximum-Head-Change  Column Row Layer    Maximum-Flux-Residual          L2-NORM 
          0                 1           2            55    5     1      -0.2220115983E+00      55    5    1        -0.2307248493E-01      0.7856529922E-01
          0                 2           2            55    5     1       0.1975441705E-01      55    5    1         0.2263509012E-02      0.7632476581E-02
          0                 3           2            55    5     1      -0.1650173492E-02      55    5    1        -0.2040562699E-03      0.7101139850E-03
          0                 4           2            55    5     1       0.1254936733E-03      55    5    1         0.1634296524E-04      0.5901343888E-04
          0                 5           1            55    5     1      -0.8514619686E-05      55    5    1        -0.1148902843E-05      0.4263979525E-05
          0                 6           1            55    5     1       0.5035650613E-06      55    5    1         0.6961894627E-07      0.2628327939E-06

    ------------------------------------------------
       NWT REQUIRED            6 OUTER ITERATIONS 
       AND A TOTAL OF         10 INNER ITERATIONS.
    ------------------------------------------------

 NO OUTPUT CONTROL FOR STRESS PERIOD   12   TIME STEP   10
 
 SOLVING FOR HEAD 
                                                   Max.-Head-Change                         Max.-Flux-Residual
  Residual-Control   Outer-Iter.   Inner-Iter.     Column Row Layer    Maximum-Head-Change  Column Row Layer    Maximum-Flux-Residual          L2-NORM 
          0                 1           2            55    5     1      -0.2116673666E+00      55    5    1        -0.1971706184E-01      0.7513180744E-01
          0                 2           2            55    5     1       0.1874596492E-01      55    5    1         0.1933098005E-02      0.7315171261E-02
          0                 3           2            55    5     1      -0.1558743111E-02      55    5    1        -0.1742759067E-03      0.6834431341E-03
          0                 4           2            55    5     1       0.1180820653E-03      55    5    1         0.1395782500E-04      0.5707672466E-04
          0                 5           1            55    6     1      -0.8112617943E-05      55    5    1        -0.9812284816E-06      0.4141978558E-05
          0                 6           1            55    6     1       0.4851842240E-06      55    5    1         0.5945854853E-07      0.2561635028E-06

    ------------------------------------------------
       NWT REQUIRED            6 OUTER ITERATIONS 
       AND A TOTAL OF         10 INNER ITERATIONS.
    ------------------------------------------------

 NO OUTPUT CONTROL FOR STRESS PERIOD   12   TIME STEP   11
 
 SOLVING FOR HEAD 
                                                   Max.-Head-Change                         Max.-Flux-Residual
  Residual-Control   Outer-Iter.   Inner-Iter.     Column Row Layer    Maximum-Head-Change  Column Row Layer    Maximum-Flux-Residual          L2-NORM 
          0                 1           2            55    5     1      -0.2047834401E+00      55    5    1        -0.1713693504E-01      0.7243990108E-01
          0                 2           2            55    5     1       0.1805097352E-01      55    5    1         0.1678299754E-02      0.7064308127E-02
          0                 3           2            55    5     1      -0.1493948044E-02      55    5    1        -0.1513165515E-03      0.6626242993E-03
          0                 4           2            55    6     1       0.1145367516E-03      55    5    1         0.1211894610E-04      0.5561622393E-04
          0                 5           1            55    6     1      -0.7919443628E-05      55    5    1        -0.8519562861E-06      0.4054590944E-05
          0                 6           1            55    6     1       0.4732604449E-06      55    5    1         0.5162516692E-07      0.2516656986E-06

    ------------------------------------------------
       NWT REQUIRED            6 OUTER ITERATIONS 
       AND A TOTAL OF         10 INNER ITERATIONS.
    ------------------------------------------------

 NO OUTPUT CONTROL FOR STRESS PERIOD   12   TIME STEP   12
 
 SOLVING FOR HEAD 
                                                   Max.-Head-Change                         Max.-Flux-Residual
  Residual-Control   Outer-Iter.   Inner-Iter.     Column Row Layer    Maximum-Head-Change  Column Row Layer    Maximum-Flux-Residual          L2-NORM 
          0                 1           2            55    5     1      -0.2004393571E+00      55    5    1        -0.1506695376E-01      0.7031369630E-01
          0                 2           2            55    5     1       0.1758095358E-01      55    5    1         0.1473314292E-02      0.6860506882E-02
          0                 3           2            55    5     1      -0.1447570582E-02      55    5    1        -0.1328505879E-03      0.6457933556E-03
          0                 4           2            55    6     1       0.1122550909E-03      55    5    1         0.1063992391E-04      0.5448842646E-04
          0                 5           1            55    6     1      -0.7752610396E-05      55    5    1        -0.7479819841E-06      0.3992242870E-05
          0                 6           1            55    6     1       0.4628447000E-06      55    5    1         0.4532473785E-07      0.2487666992E-06

    ------------------------------------------------
       NWT REQUIRED            6 OUTER ITERATIONS 
       AND A TOTAL OF         10 INNER ITERATIONS.
    ------------------------------------------------

 NO OUTPUT CONTROL FOR STRESS PERIOD   12   TIME STEP   13
 
 SOLVING FOR HEAD 
                                                   Max.-Head-Change                         Max.-Flux-Residual
  Residual-Control   Outer-Iter.   Inner-Iter.     Column Row Layer    Maximum-Head-Change  Column Row Layer    Maximum-Flux-Residual          L2-NORM 
          0                 1           2            55    5     1      -0.1986123736E+00      55    5    1        -0.1339062236E-01      0.6864723137E-01
          0                 2           2            55    5     1       0.1736657296E-01      55    5    1         0.1306728455E-02      0.6701417418E-02
          0                 3           2            55    5     1      -0.1423780798E-02      55    5    1        -0.1178508516E-03      0.6328005951E-03
          0                 4           2            55    6     1       0.1105662781E-03      55    5    1         0.9438460005E-05      0.5365307631E-04
          0                 5           1            55    7     1      -0.7629901561E-05      55    5    1        -0.6635202852E-06      0.3950570169E-05
          0                 6           1            55    7     1       0.4569864906E-06      55    5    1         0.4020669275E-07      0.2471797240E-06

    ------------------------------------------------
       NWT REQUIRED            6 OUTER ITERATIONS 
       AND A TOTAL OF         10 INNER ITERATIONS.
    ------------------------------------------------

 NO OUTPUT CONTROL FOR STRESS PERIOD   12   TIME STEP   14
 
 SOLVING FOR HEAD 
                                                   Max.-Head-Change                         Max.-Flux-Residual
  Residual-Control   Outer-Iter.   Inner-Iter.     Column Row Layer    Maximum-Head-Change  Column Row Layer    Maximum-Flux-Residual          L2-NORM 
          0                 1           2            55    5     1      -0.1990024380E+00      55    5    1        -0.1208459206E-01      0.6730979894E-01
          0                 2           2            55    5     1       0.1731113534E-01      55    5    1         0.1176157000E-02      0.6578217456E-02
          0                 3           2            55    5     1      -0.1411915431E-02      55    5    1        -0.1060980576E-03      0.6235869647E-03
          0                 4           2            55    7     1       0.1094686153E-03      55    5    1         0.8497061451E-05      0.5313076933E-04
          0                 5           1            55    7     1      -0.7591673698E-05      55    5    1        -0.5973409195E-06      0.3930818754E-05
          0                 6           1            55    7     1       0.4543856171E-06      55    5    1         0.3619648326E-07      0.2468922432E-06

    ------------------------------------------------
       NWT REQUIRED            6 OUTER ITERATIONS 
       AND A TOTAL OF         10 INNER ITERATIONS.
    ------------------------------------------------

 NO OUTPUT CONTROL FOR STRESS PERIOD   12   TIME STEP   15
 
 SOLVING FOR HEAD 
                                                   Max.-Head-Change                         Max.-Flux-Residual
  Residual-Control   Outer-Iter.   Inner-Iter.     Column Row Layer    Maximum-Head-Change  Column Row Layer    Maximum-Flux-Residual          L2-NORM 
          0                 1           2            55    5     1      -0.2004223281E+00      55    5    1        -0.1101219626E-01      0.6622258743E-01
          0                 2           2            55    5     1       0.1678314521E-01      55    5    1         0.1068379094E-02      0.6479259055E-02
          0                 3           2            55    6     1      -0.1389773762E-02      55    5    1        -0.9637639185E-04      0.6171791716E-03
          0                 4           2            55    7     1       0.1090908815E-03      55    5    1         0.7718525717E-05      0.5285872674E-04
          0                 5           1            55    7     1      -0.7563208503E-05      55    5    1        -0.5426097669E-06      0.3928545755E-05
          0                 6           1            55    7     1       0.4525120336E-06      55    5    1         0.3287999439E-07      0.2475884104E-06

    ------------------------------------------------
       NWT REQUIRED            6 OUTER ITERATIONS 
       AND A TOTAL OF         10 INNER ITERATIONS.
    ------------------------------------------------

 NO OUTPUT CONTROL FOR STRESS PERIOD   12   TIME STEP   16
 
 SOLVING FOR HEAD 
                                                   Max.-Head-Change                         Max.-Flux-Residual
  Residual-Control   Outer-Iter.   Inner-Iter.     Column Row Layer    Maximum-Head-Change  Column Row Layer    Maximum-Flux-Residual          L2-NORM 
          0                 1           2            55    5     1      -0.2034986766E+00      55    5    1        -0.1011154821E-01      0.6537902901E-01
          0                 2           2            55    5     1       0.1687190966E-01      55    5    1         0.9772061980E-03      0.6398904691E-02
          0                 3           2            55    7     1      -0.1385495144E-02      55    5    1        -0.8817316697E-04      0.6116883181E-03
          0                 4           2            55    7     1       0.1088583192E-03      55    5    1         0.7061643375E-05      0.5265389267E-04
          0                 5           1            55    7     1      -0.7542212765E-05      55    5    1        -0.4964296419E-06      0.3932113381E-05
          0                 6           1            55    7     1       0.4512516669E-06      55    5    1         0.3008167038E-07      0.2487114862E-06

    ------------------------------------------------
       NWT REQUIRED            6 OUTER ITERATIONS 
       AND A TOTAL OF         10 INNER ITERATIONS.
    ------------------------------------------------

 NO OUTPUT CONTROL FOR STRESS PERIOD   12   TIME STEP   17
 
 SOLVING FOR HEAD 
                                                   Max.-Head-Change                         Max.-Flux-Residual
  Residual-Control   Outer-Iter.   Inner-Iter.     Column Row Layer    Maximum-Head-Change  Column Row Layer    Maximum-Flux-Residual          L2-NORM 
          0                 1           2            55    5     1      -0.2098223958E+00      55    5    1        -0.9355714308E-02      0.6475691632E-01
          0                 2           2            55    5     1       0.1732095939E-01      55    5    1         0.8996265832E-03      0.6336441704E-02
          0                 3           2            55    7     1      -0.1398890157E-02      55    5    1        -0.8120692999E-04      0.6069519085E-03
          0                 4           2            55    7     1       0.1096526343E-03      55    5    1         0.6503533016E-05      0.5247506834E-04
          0                 5           1            55    7     1      -0.7585149484E-05      55    5    1        -0.4571955623E-06      0.3938108891E-05
          0                 6           1            55    7     1       0.4532002898E-06      55    5    1         0.2770423879E-07      0.2500740694E-06

    ------------------------------------------------
       NWT REQUIRED            6 OUTER ITERATIONS 
       AND A TOTAL OF         10 INNER ITERATIONS.
    ------------------------------------------------

 NO OUTPUT CONTROL FOR STRESS PERIOD   12   TIME STEP   18
 
 SOLVING FOR HEAD 
                                                   Max.-Head-Change                         Max.-Flux-Residual
  Residual-Control   Outer-Iter.   Inner-Iter.     Column Row Layer    Maximum-Head-Change  Column Row Layer    Maximum-Flux-Residual          L2-NORM 
          0                 1           2            55    5     1      -0.2185488935E+00      55    5    1        -0.8753574211E-02      0.6429344004E-01
          0                 2           2            55    5     1       0.1793735426E-01      55    5    1         0.8364631587E-03      0.6291188540E-02
          0                 3           2            55    7     1      -0.1423408241E-02      55    5    1        -0.7554263261E-04      0.6040164179E-03
          0                 4           2            55    7     1       0.1112766979E-03      55    5    1         0.6049697163E-05      0.5244223850E-04
          0                 5           1            55    7     1      -0.7683461514E-05      55    5    1        -0.4252918751E-06      0.3954027542E-05
          0                 6           1            55    7     1       0.4583237414E-06      55    4    1        -0.2704291613E-07      0.2519661552E-06

    ------------------------------------------------
       NWT REQUIRED            6 OUTER ITERATIONS 
       AND A TOTAL OF         10 INNER ITERATIONS.
    ------------------------------------------------

 NO OUTPUT CONTROL FOR STRESS PERIOD   12   TIME STEP   19
 
 SOLVING FOR HEAD 
                                                   Max.-Head-Change                         Max.-Flux-Residual
  Residual-Control   Outer-Iter.   Inner-Iter.     Column Row Layer    Maximum-Head-Change  Column Row Layer    Maximum-Flux-Residual          L2-NORM 
          0                 1           3            55    5     1      -0.2290967674E+00      55    5    1        -0.8289517396E-02      0.6392920376E-01
          0                 2           2            55    5     1       0.1872303122E-01      55    5    1         0.7860634040E-03      0.6261157297E-02
          0                 3           2            55    6     1      -0.1462483335E-02      55    5    1        -0.7103236530E-04      0.6029561633E-03
          0                 4           2            55    7     1       0.1138939977E-03      55    5    1         0.5688275438E-05      0.5254553496E-04
          0                 5           1            55    7     1      -0.7847571752E-05      50    4    1         0.4330879517E-06      0.3977122530E-05
          0                 6           1            55    7     1       0.4671604975E-06      50    4    1        -0.2748239947E-07      0.2541144556E-06

    ------------------------------------------------
       NWT REQUIRED            6 OUTER ITERATIONS 
       AND A TOTAL OF         11 INNER ITERATIONS.
    ------------------------------------------------

 NO OUTPUT CONTROL FOR STRESS PERIOD   12   TIME STEP   20
 
 SOLVING FOR HEAD 
                                                   Max.-Head-Change                         Max.-Flux-Residual
  Residual-Control   Outer-Iter.   Inner-Iter.     Column Row Layer    Maximum-Head-Change  Column Row Layer    Maximum-Flux-Residual          L2-NORM 
          0                 1           3            55    5     1      -0.2419753221E+00      55    5    1        -0.7916183628E-02      0.6367293228E-01
          0                 2           2            55    5     1       0.1919548611E-01      55    5    1         0.7435521964E-03      0.6235969676E-02
          0                 3           2            55    7     1      -0.1508506317E-02      55    5    1        -0.6721765853E-04      0.6014518748E-03
          0                 4           2            55    7     1       0.1173204956E-03      50    4    1        -0.5473922567E-05      0.5258424319E-04
          0                 5           1            55    7     1      -0.8070128538E-05      50    4    1         0.4364368791E-06      0.3996197537E-05
          0                 6           1            55    7     1       0.4794610350E-06      50    4    1        -0.2783652375E-07      0.2560239354E-06

    ------------------------------------------------
       NWT REQUIRED            6 OUTER ITERATIONS 
       AND A TOTAL OF         11 INNER ITERATIONS.
    ------------------------------------------------

 NO OUTPUT CONTROL FOR STRESS PERIOD   12   TIME STEP   21
 
 SOLVING FOR HEAD 
                                                   Max.-Head-Change                         Max.-Flux-Residual
  Residual-Control   Outer-Iter.   Inner-Iter.     Column Row Layer    Maximum-Head-Change  Column Row Layer    Maximum-Flux-Residual          L2-NORM 
          0                 1           3            55    5     1      -0.2572656320E+00      55    5    1        -0.7607757314E-02      0.6356285891E-01
          0                 2           2            55    5     1       0.2007881217E-01      55    5    1         0.7061908090E-03      0.6217130391E-02
          0                 3           2            55    7     1      -0.1565550363E-02      55    5    1        -0.6388166917E-04      0.6004048434E-03
          0                 4           2            55    7     1       0.1212592686E-03      55    4    1        -0.5983475600E-05      0.5265599554E-04
          0                 5           1            55    7     1      -0.8328624146E-05      55    4    1         0.4790938506E-06      0.4016357322E-05
          0                 6           1            55    7     1       0.4942633118E-06      55    4    1        -0.3024056983E-07      0.2577995327E-06

    ------------------------------------------------
       NWT REQUIRED            6 OUTER ITERATIONS 
       AND A TOTAL OF         11 INNER ITERATIONS.
    ------------------------------------------------

 NO OUTPUT CONTROL FOR STRESS PERIOD   12   TIME STEP   22
 
 SOLVING FOR HEAD 
                                                   Max.-Head-Change                         Max.-Flux-Residual
  Residual-Control   Outer-Iter.   Inner-Iter.     Column Row Layer    Maximum-Head-Change  Column Row Layer    Maximum-Flux-Residual          L2-NORM 
          0                 1           3            55    5     1      -0.2766719723E+00      55    5    1        -0.7372815496E-02      0.6356842528E-01
          0                 2           2            55    5     1       0.2151203199E-01      55    5    1         0.6739797825E-03      0.6211506338E-02
          0                 3           2            55    7     1      -0.1647659969E-02      55    5    1        -0.6103366199E-04      0.6000970733E-03
          0                 4           2            55    7     1       0.1270764537E-03      55    4    1        -0.6018573890E-05      0.5277294723E-04
          0                 5           1            55    7     1      -0.8700010643E-05      55    4    1         0.4865141627E-06      0.4040836939E-05
          0                 6           1            55    7     1       0.5144577703E-06      55    4    1        -0.3076337829E-07      0.2597963984E-06

    ------------------------------------------------
       NWT REQUIRED            6 OUTER ITERATIONS 
       AND A TOTAL OF         11 INNER ITERATIONS.
    ------------------------------------------------

 NO OUTPUT CONTROL FOR STRESS PERIOD   12   TIME STEP   23
 
 SOLVING FOR HEAD 
                                                   Max.-Head-Change                         Max.-Flux-Residual
  Residual-Control   Outer-Iter.   Inner-Iter.     Column Row Layer    Maximum-Head-Change  Column Row Layer    Maximum-Flux-Residual          L2-NORM 
          0                 1           3            55    5     1      -0.2999926616E+00      55    5    1        -0.7198237647E-02      0.6359139806E-01
          0                 2           2            55    5     1       0.2325213145E-01      55    5    1         0.6451323774E-03      0.6213334251E-02
          0                 3           2            55    7     1      -0.1749198840E-02      55    5    1        -0.5850304443E-04      0.6007388096E-03
          0                 4           2            55    7     1       0.1342767911E-03      55    4    1        -0.6089175469E-05      0.5297385459E-04
          0                 5           1            55    7     1      -0.9158378932E-05      55    4    1         0.4968886745E-06      0.4071357080E-05
          0                 6           1            55    7     1       0.5392720080E-06      55    4    1        -0.3143914262E-07      0.2620154956E-06

    ------------------------------------------------
       NWT REQUIRED            6 OUTER ITERATIONS 
       AND A TOTAL OF         11 INNER ITERATIONS.
    ------------------------------------------------

 NO OUTPUT CONTROL FOR STRESS PERIOD   12   TIME STEP   24
 
 SOLVING FOR HEAD 
                                                   Max.-Head-Change                         Max.-Flux-Residual
  Residual-Control   Outer-Iter.   Inner-Iter.     Column Row Layer    Maximum-Head-Change  Column Row Layer    Maximum-Flux-Residual          L2-NORM 
          0                 1           3            55    5     1      -0.3273316296E+00      55    5    1        -0.7103896139E-02      0.6360435752E-01
          0                 2           2            55    5     1       0.2529547577E-01      55    5    1         0.6208528042E-03      0.6214276065E-02
          0                 3           2            55    6     1      -0.1871062102E-02      55    5    1        -0.5640112034E-04      0.6012082934E-03
          0                 4           2            55    7     1       0.1429318203E-03      55    4    1        -0.6175283904E-05      0.5314702634E-04
          0                 5           1            55    7     1      -0.9709662599E-05      55    4    1         0.5085134511E-06      0.4098803732E-05
          0                 6           1            55    7     1       0.5689952687E-06      55    4    1        -0.3214951683E-07      0.2637978471E-06

    ------------------------------------------------
       NWT REQUIRED            6 OUTER ITERATIONS 
       AND A TOTAL OF         11 INNER ITERATIONS.
    ------------------------------------------------

 NO OUTPUT CONTROL FOR STRESS PERIOD   12   TIME STEP   25
 
 SOLVING FOR HEAD 
                                                   Max.-Head-Change                         Max.-Flux-Residual
  Residual-Control   Outer-Iter.   Inner-Iter.     Column Row Layer    Maximum-Head-Change  Column Row Layer    Maximum-Flux-Residual          L2-NORM 
          0                 1           3            55    5     1      -0.3597106360E+00      55    5    1        -0.7043675097E-02      0.6363170223E-01
          0                 2           2            55    5     1       0.2784496111E-01      55    5    1         0.5955186982E-03      0.6210578702E-02
          0                 3           2            55    5     1      -0.2049310096E-02      55    5    1        -0.5423482774E-04      0.6009392225E-03
          0                 4           2            55    7     1       0.1533838874E-03      55    4    1        -0.6071723952E-05      0.5324971530E-04
          0                 5           1            55    7     1      -0.1036966207E-04      55    4    1         0.5095612641E-06      0.4121410879E-05
          0                 6           1            55    7     1       0.6040896783E-06      55    4    1        -0.3239015023E-07      0.2651461505E-06

    ------------------------------------------------
       NWT REQUIRED            6 OUTER ITERATIONS 
       AND A TOTAL OF         11 INNER ITERATIONS.
    ------------------------------------------------

 NO OUTPUT CONTROL FOR STRESS PERIOD   12   TIME STEP   26
 
 SOLVING FOR HEAD 
                                                   Max.-Head-Change                         Max.-Flux-Residual
  Residual-Control   Outer-Iter.   Inner-Iter.     Column Row Layer    Maximum-Head-Change  Column Row Layer    Maximum-Flux-Residual          L2-NORM 
          0                 1           3            55    5     1      -0.3977658455E+00      55    5    1        -0.7043709942E-02      0.6365949822E-01
          0                 2           2            55    5     1       0.3068427162E-01      55    6    1         0.5753106887E-03      0.6211358816E-02
          0                 3           2            55    5     1      -0.2250143747E-02      55    4    1         0.5251983807E-04      0.6013872057E-03
          0                 4           2            55    7     1       0.1653960078E-03      55    4    1        -0.6159266124E-05      0.5340206963E-04
          0                 5           1            55    7     1      -0.1112823091E-04      55    4    1         0.5223606578E-06      0.4145811017E-05
          0                 6           1            55    7     1       0.6443304691E-06      55    4    1        -0.3308181118E-07      0.2662469313E-06

    ------------------------------------------------
       NWT REQUIRED            6 OUTER ITERATIONS 
       AND A TOTAL OF         11 INNER ITERATIONS.
    ------------------------------------------------

 NO OUTPUT CONTROL FOR STRESS PERIOD   12   TIME STEP   27
 
 SOLVING FOR HEAD 
                                                   Max.-Head-Change                         Max.-Flux-Residual
  Residual-Control   Outer-Iter.   Inner-Iter.     Column Row Layer    Maximum-Head-Change  Column Row Layer    Maximum-Flux-Residual          L2-NORM 
          0                 1           3            55    5     1      -0.4397661147E+00      55    5    1        -0.7077194185E-02      0.6366598299E-01
          0                 2           2            55    5     1       0.3377684514E-01      55    6    1         0.5806239219E-03      0.6210470354E-02
          0                 3           2            55    5     1      -0.2469095955E-02      55    4    1         0.5324547564E-04      0.6016908410E-03
          0                 4           2            55    7     1       0.1789659640E-03      55    4    1        -0.6284521494E-05      0.5353858902E-04
          0                 5           1            55    7     1      -0.1198399770E-04      55    4    1         0.5365136323E-06      0.4168531526E-05
          0                 6           1            55    7     1       0.6893396096E-06      55    4    1        -0.3367112344E-07      0.2668878297E-06

    ------------------------------------------------
       NWT REQUIRED            6 OUTER ITERATIONS 
       AND A TOTAL OF         11 INNER ITERATIONS.
    ------------------------------------------------

 NO OUTPUT CONTROL FOR STRESS PERIOD   12   TIME STEP   28
 
 SOLVING FOR HEAD 
                                                   Max.-Head-Change                         Max.-Flux-Residual
  Residual-Control   Outer-Iter.   Inner-Iter.     Column Row Layer    Maximum-Head-Change  Column Row Layer    Maximum-Flux-Residual          L2-NORM 
          0                 1           3            55    5     1      -0.4884494794E+00      55    5    1        -0.7115444575E-02      0.6367014935E-01
          0                 2           3            55    5     1       0.3731828952E-01      55    6    1         0.5893270855E-03      0.6205985396E-02
          0                 3           2            55    5     1      -0.2718515818E-02      55    4    1         0.5334348849E-04      0.6014694402E-03
          0                 4           2            55    7     1       0.1942307649E-03      55    4    1        -0.6370356631E-05      0.5360889587E-04
          0                 5           1            55    7     1      -0.1293886388E-04      55    4    1         0.5484645873E-06      0.4185380665E-05
          0                 6           1            55    7     1       0.7387142267E-06      55    4    1        -0.3398217863E-07      0.2667461653E-06

    ------------------------------------------------
       NWT REQUIRED            6 OUTER ITERATIONS 
       AND A TOTAL OF         12 INNER ITERATIONS.
    ------------------------------------------------

 NO OUTPUT CONTROL FOR STRESS PERIOD   12   TIME STEP   29
 
 SOLVING FOR HEAD 
                                                   Max.-Head-Change                         Max.-Flux-Residual
  Residual-Control   Outer-Iter.   Inner-Iter.     Column Row Layer    Maximum-Head-Change  Column Row Layer    Maximum-Flux-Residual          L2-NORM 
          0                 1           3            55    5     1      -0.5452135432E+00      55    5    1        -0.7188069994E-02      0.6368189134E-01
          0                 2           3            55    5     1       0.4144628213E-01      55    6    1         0.6028574989E-03      0.6200830859E-02
          0                 3           2            55    5     1      -0.3015927412E-02      55    6    1        -0.5414499968E-04      0.6008653880E-03
          0                 4           2            55    7     1       0.2118053334E-03      55    4    1        -0.6351945831E-05      0.5363440941E-04
          0                 5           1            55    7     1      -0.1403221682E-04      55    4    1         0.5539882975E-06      0.4198755774E-05
          0                 6           1            55    7     1       0.7946900330E-06      50    4    1        -0.3464185472E-07      0.2660916293E-06

    ------------------------------------------------
       NWT REQUIRED            6 OUTER ITERATIONS 
       AND A TOTAL OF         12 INNER ITERATIONS.
    ------------------------------------------------

 NO OUTPUT CONTROL FOR STRESS PERIOD   12   TIME STEP   30



 STREAM LISTING     PERIOD     12   STEP       30

 LAYER ROW COL. STREAM  RCH.   FLOW INTO    STREAM     FLOW OUT OF   OVRLND.    DIRECT     STREAM      STREAM      STREAM     STREAM  STREAMBED   FLOW TO   CHNG. UNSAT. 
                SEG.NO.  NO.   STRM. RCH.    LOSS       STRM. RCH.   RUNOFF     PRECIP       ET         HEAD        DEPTH      WIDTH  CONDCTNC.   WAT. TAB.

   1    4    1     1     1    2.2080E+00  9.5306E-04   2.2070E+00  0.000E+00  0.000E+00  0.000E+00  1.40954E+02  1.104E+00  3.134E+00  5.940E-04  1.072E-03 -1.185E-04
   1    4    2     1     2    2.2070E+00  9.5279E-04   2.2061E+00  0.000E+00  0.000E+00  0.000E+00  1.40654E+02  1.104E+00  3.134E+00  5.939E-04  1.066E-03 -1.136E-04
   1    4    3     1     3    2.2061E+00  9.5251E-04   2.2051E+00  0.000E+00  0.000E+00  0.000E+00  1.40354E+02  1.104E+00  3.133E+00  5.939E-04  1.065E-03 -1.128E-04
   1    4    4     1     4    2.2051E+00  9.5224E-04   2.2042E+00  0.000E+00  0.000E+00  0.000E+00  1.40054E+02  1.104E+00  3.133E+00  5.938E-04  1.064E-03 -1.118E-04
   1    4    5     1     5    2.2042E+00  9.5196E-04   2.2032E+00  0.000E+00  0.000E+00  0.000E+00  1.39753E+02  1.103E+00  3.133E+00  5.937E-04  1.062E-03 -1.105E-04
   1    4    6     1     6    2.2032E+00  9.5169E-04   2.2023E+00  0.000E+00  0.000E+00  0.000E+00  1.39453E+02  1.103E+00  3.132E+00  5.936E-04  1.061E-03 -1.088E-04
   1    4    7     1     7    2.2023E+00  9.5142E-04   2.2013E+00  0.000E+00  0.000E+00  0.000E+00  1.39153E+02  1.103E+00  3.132E+00  5.935E-04  1.058E-03 -1.070E-04
   1    4    8     1     8    2.2013E+00  9.5114E-04   2.2004E+00  0.000E+00  0.000E+00  0.000E+00  1.38853E+02  1.103E+00  3.132E+00  5.935E-04  1.056E-03 -1.048E-04
   1    4    9     1     9    2.2004E+00  9.5087E-04   2.1994E+00  0.000E+00  0.000E+00  0.000E+00  1.38552E+02  1.102E+00  3.132E+00  5.934E-04  1.053E-03 -1.023E-04
   1    4   10     1    10    2.1994E+00  9.5059E-04   2.1985E+00  0.000E+00  0.000E+00  0.000E+00  1.38252E+02  1.102E+00  3.131E+00  5.933E-04  1.050E-03 -9.960E-05
   1    4   11     1    11    2.1985E+00  9.5032E-04   2.1975E+00  0.000E+00  0.000E+00  0.000E+00  1.37952E+02  1.102E+00  3.131E+00  5.932E-04  1.047E-03 -9.660E-05
   1    4   12     1    12    2.1975E+00  9.5005E-04   2.1966E+00  0.000E+00  0.000E+00  0.000E+00  1.37652E+02  1.102E+00  3.131E+00  5.931E-04  1.043E-03 -9.333E-05
   1    4   13     1    13    2.1966E+00  9.4977E-04   2.1956E+00  0.000E+00  0.000E+00  0.000E+00  1.37351E+02  1.101E+00  3.130E+00  5.931E-04  1.040E-03 -8.981E-05
   1    4   14     1    14    2.1956E+00  9.4950E-04   2.1947E+00  0.000E+00  0.000E+00  0.000E+00  1.37051E+02  1.101E+00  3.130E+00  5.930E-04  1.036E-03 -8.606E-05
   1    4   15     1    15    2.1947E+00  9.4922E-04   2.1937E+00  0.000E+00  0.000E+00  0.000E+00  1.36751E+02  1.101E+00  3.130E+00  5.929E-04  1.038E-03 -8.878E-05
   1    4   16     1    16    2.1937E+00  9.4895E-04   2.1928E+00  0.000E+00  0.000E+00  0.000E+00  1.36451E+02  1.101E+00  3.129E+00  5.928E-04  1.045E-03 -9.557E-05
   1    4   17     1    17    2.1928E+00  9.4868E-04   2.1918E+00  0.000E+00  0.000E+00  0.000E+00  1.36150E+02  1.100E+00  3.129E+00  5.927E-04  1.052E-03 -1.031E-04
   1    4   18     1    18    2.1918E+00  9.4840E-04   2.1909E+00  0.000E+00  0.000E+00  0.000E+00  1.35850E+02  1.100E+00  3.129E+00  5.927E-04  1.047E-03 -9.819E-05
   1    4   19     1    19    2.1909E+00  9.4813E-04   2.1899E+00  0.000E+00  0.000E+00  0.000E+00  1.35550E+02  1.100E+00  3.129E+00  5.926E-04  1.041E-03 -9.310E-05
   1    4   20     1    20    2.1899E+00  9.4786E-04   2.1890E+00  0.000E+00  0.000E+00  0.000E+00  1.35250E+02  1.100E+00  3.128E+00  5.925E-04  1.036E-03 -8.783E-05
   1    4   21     1    21    2.1890E+00  9.4758E-04   2.1880E+00  0.000E+00  0.000E+00  0.000E+00  1.34950E+02  1.100E+00  3.128E+00  5.924E-04  1.030E-03 -8.244E-05
   1    4   22     1    22    2.1880E+00  9.4731E-04   2.1871E+00  0.000E+00  0.000E+00  0.000E+00  1.34649E+02  1.099E+00  3.128E+00  5.923E-04  1.024E-03 -7.694E-05
   1    4   23     1    23    2.1871E+00  9.4704E-04   2.1861E+00  0.000E+00  0.000E+00  0.000E+00  1.34349E+02  1.099E+00  3.127E+00  5.923E-04  1.018E-03 -7.139E-05
   1    4   24     1    24    2.1861E+00  9.4676E-04   2.1852E+00  0.000E+00  0.000E+00  0.000E+00  1.34049E+02  1.099E+00  3.127E+00  5.922E-04  1.013E-03 -6.582E-05
   1    4   25     1    25    2.1852E+00  9.4649E-04   2.1843E+00  0.000E+00  0.000E+00  0.000E+00  1.33749E+02  1.099E+00  3.127E+00  5.921E-04  1.007E-03 -6.028E-05
   1    4   26     1    26    2.1843E+00  9.4622E-04   2.1833E+00  0.000E+00  0.000E+00  0.000E+00  1.33448E+02  1.098E+00  3.127E+00  5.920E-04  1.001E-03 -5.483E-05
   1    4   27     1    27    2.1833E+00  9.4594E-04   2.1824E+00  0.000E+00  0.000E+00  0.000E+00  1.33148E+02  1.098E+00  3.126E+00  5.919E-04  9.955E-04 -4.953E-05
   1    4   28     1    28    2.1824E+00  9.4567E-04   2.1814E+00  0.000E+00  0.000E+00  0.000E+00  1.32848E+02  1.098E+00  3.126E+00  5.919E-04  9.901E-04 -4.443E-05
   1    4   29     1    29    2.1814E+00  9.4540E-04   2.1805E+00  0.000E+00  0.000E+00  0.000E+00  1.32548E+02  1.098E+00  3.126E+00  5.918E-04  9.850E-04 -3.961E-05
   1    4   30     1    30    2.1805E+00  9.4513E-04   2.1795E+00  0.000E+00  0.000E+00  0.000E+00  1.32247E+02  1.097E+00  3.125E+00  5.917E-04  9.803E-04 -3.515E-05
   1    4   31     1    31    2.1795E+00  9.4485E-04   2.1786E+00  0.000E+00  0.000E+00  0.000E+00  1.31947E+02  1.097E+00  3.125E+00  5.916E-04  9.760E-04 -3.111E-05
   1    4   32     1    32    2.1786E+00  9.4458E-04   2.1776E+00  0.000E+00  0.000E+00  0.000E+00  1.31647E+02  1.097E+00  3.125E+00  5.915E-04  9.721E-04 -2.756E-05
   1    4   33     1    33    2.1776E+00  9.4431E-04   2.1767E+00  0.000E+00  0.000E+00  0.000E+00  1.31347E+02  1.097E+00  3.124E+00  5.915E-04  9.689E-04 -2.457E-05
   1    4   34     1    34    2.1767E+00  9.4404E-04   2.1757E+00  0.000E+00  0.000E+00  0.000E+00  1.31046E+02  1.096E+00  3.124E+00  5.914E-04  9.662E-04 -2.218E-05
   1    4   35     1    35    2.1757E+00  9.4376E-04   2.1748E+00  0.000E+00  0.000E+00  0.000E+00  1.30746E+02  1.096E+00  3.124E+00  5.913E-04  9.641E-04 -2.034E-05
   1    4   36     1    36    2.1748E+00  9.4349E-04   2.1739E+00  0.000E+00  0.000E+00  0.000E+00  1.30446E+02  1.096E+00  3.124E+00  5.912E-04  1.024E-03 -8.054E-05
   1    4   37     1    37    2.1739E+00  9.4322E-04   2.1729E+00  0.000E+00  0.000E+00  0.000E+00  1.30146E+02  1.096E+00  3.123E+00  5.911E-04  1.050E-03 -1.071E-04
   1    4   38     1    38    2.1729E+00  9.4295E-04   2.1720E+00  0.000E+00  0.000E+00  0.000E+00  1.29845E+02  1.095E+00  3.123E+00  5.911E-04  1.063E-03 -1.197E-04
   1    4   39     1    39    2.1720E+00  9.4267E-04   2.1710E+00  0.000E+00  0.000E+00  0.000E+00  1.29545E+02  1.095E+00  3.123E+00  5.910E-04  1.126E-03 -1.831E-04
   1    4   40     1    40    2.1710E+00  9.4240E-04   2.1701E+00  0.000E+00  0.000E+00  0.000E+00  1.29245E+02  1.095E+00  3.122E+00  5.909E-04  1.126E-03 -1.835E-04
   1    4   41     1    41    2.1701E+00  9.4213E-04   2.1691E+00  0.000E+00  0.000E+00  0.000E+00  1.28945E+02  1.095E+00  3.122E+00  5.908E-04  1.126E-03 -1.834E-04
   1    4   42     1    42    2.1691E+00  9.4186E-04   2.1682E+00  0.000E+00  0.000E+00  0.000E+00  1.28644E+02  1.094E+00  3.122E+00  5.907E-04  1.130E-03 -1.877E-04
   1    4   43     1    43    2.1682E+00  9.4159E-04   2.1673E+00  0.000E+00  0.000E+00  0.000E+00  1.28344E+02  1.094E+00  3.122E+00  5.907E-04  1.162E-03 -2.206E-04
   1    4   44     1    44    2.1673E+00  9.4132E-04   2.1663E+00  0.000E+00  0.000E+00  0.000E+00  1.28044E+02  1.094E+00  3.121E+00  5.906E-04  1.331E-03 -3.893E-04
   1    4   45     1    45    2.1663E+00  9.4104E-04   2.1654E+00  0.000E+00  0.000E+00  0.000E+00  1.27744E+02  1.094E+00  3.121E+00  5.905E-04  1.401E-03 -4.601E-04
   1    4   46     1    46    2.1654E+00  9.4077E-04   2.1644E+00  0.000E+00  0.000E+00  0.000E+00  1.27443E+02  1.093E+00  3.121E+00  5.904E-04  1.474E-03 -5.334E-04
   1    4   47     1    47    2.1644E+00  9.4050E-04   2.1635E+00  0.000E+00  0.000E+00  0.000E+00  1.27143E+02  1.093E+00  3.120E+00  5.903E-04  1.503E-03 -5.624E-04
   1    4   48     1    48    2.1635E+00  9.4023E-04   2.1626E+00  0.000E+00  0.000E+00  0.000E+00  1.26843E+02  1.093E+00  3.120E+00  5.903E-04  1.639E-03 -6.988E-04
   1    4   49     1    49    2.1626E+00  9.3996E-04   2.1616E+00  0.000E+00  0.000E+00  0.000E+00  1.26543E+02  1.093E+00  3.120E+00  5.902E-04  1.637E-03 -6.973E-04
   1    4   50     1    50    2.1616E+00  9.3969E-04   2.1607E+00  0.000E+00  0.000E+00  0.000E+00  1.26242E+02  1.092E+00  3.119E+00  5.901E-04  1.604E-03 -6.644E-04
   1    4   51     1    51    2.1607E+00  9.3941E-04   2.1597E+00  0.000E+00  0.000E+00  0.000E+00  1.25942E+02  1.092E+00  3.119E+00  5.900E-04  1.588E-03 -6.486E-04
   1    4   52     1    52    2.1597E+00  9.3914E-04   2.1588E+00  0.000E+00  0.000E+00  0.000E+00  1.25642E+02  1.092E+00  3.119E+00  5.899E-04  1.588E-03 -6.484E-04
   1    4   53     1    53    2.1588E+00  9.3887E-04   2.1579E+00  0.000E+00  0.000E+00  0.000E+00  1.25342E+02  1.092E+00  3.119E+00  5.899E-04  1.583E-03 -6.443E-04
   1    4   54     1    54    2.1579E+00  9.3860E-04   2.1569E+00  0.000E+00  0.000E+00  0.000E+00  1.25041E+02  1.091E+00  3.118E+00  5.898E-04  1.568E-03 -6.296E-04
   1    4   55     1    55    2.1569E+00  9.3833E-04   2.1560E+00  0.000E+00  0.000E+00  0.000E+00  1.24741E+02  1.091E+00  3.118E+00  5.897E-04  1.552E-03 -6.134E-04
   1    4   56     1    56    2.1560E+00  9.3806E-04   2.1550E+00  0.000E+00  0.000E+00  0.000E+00  1.24441E+02  1.091E+00  3.118E+00  5.896E-04  1.576E-03 -6.384E-04
   1    4   57     1    57    2.1550E+00  9.3779E-04   2.1541E+00  0.000E+00  0.000E+00  0.000E+00  1.24141E+02  1.091E+00  3.117E+00  5.895E-04  1.584E-03 -6.467E-04
   1    4   58     1    58    2.1541E+00  9.3752E-04   2.1532E+00  0.000E+00  0.000E+00  0.000E+00  1.23840E+02  1.090E+00  3.117E+00  5.895E-04  1.442E-03 -5.044E-04
   1    4   59     1    59    2.1532E+00  9.3725E-04   2.1522E+00  0.000E+00  0.000E+00  0.000E+00  1.23540E+02  1.090E+00  3.117E+00  5.894E-04  1.395E-03 -4.578E-04
   1    4   60     1    60    2.1522E+00  9.3697E-04   2.1513E+00  0.000E+00  0.000E+00  0.000E+00  1.23240E+02  1.090E+00  3.117E+00  5.893E-04  1.308E-03 -3.709E-04
   1    4   61     1    61    2.1513E+00  9.3670E-04   2.1504E+00  0.000E+00  0.000E+00  0.000E+00  1.22940E+02  1.090E+00  3.116E+00  5.892E-04  1.214E-03 -2.777E-04
   1    4   62     1    62    2.1504E+00  9.3643E-04   2.1494E+00  0.000E+00  0.000E+00  0.000E+00  1.22639E+02  1.089E+00  3.116E+00  5.891E-04  1.093E-03 -1.566E-04
   1    4   63     1    63    2.1494E+00  9.3616E-04   2.1485E+00  0.000E+00  0.000E+00  0.000E+00  1.22339E+02  1.089E+00  3.116E+00  5.891E-04  1.055E-03 -1.186E-04
   1    4   64     1    64    2.1485E+00  9.3589E-04   2.1476E+00  0.000E+00  0.000E+00  0.000E+00  1.22039E+02  1.089E+00  3.115E+00  5.890E-04  1.052E-03 -1.158E-04
   1    4   65     1    65    2.1476E+00  9.3562E-04   2.1466E+00  0.000E+00  0.000E+00  0.000E+00  1.21739E+02  1.089E+00  3.115E+00  5.889E-04  1.048E-03 -1.121E-04
   1    4   66     1    66    2.1466E+00  9.3535E-04   2.1457E+00  0.000E+00  0.000E+00  0.000E+00  1.21438E+02  1.089E+00  3.115E+00  5.888E-04  9.707E-04 -3.537E-05
   1    4   67     1    67    2.1457E+00  9.3508E-04   2.1447E+00  0.000E+00  0.000E+00  0.000E+00  1.21138E+02  1.088E+00  3.115E+00  5.887E-04  9.673E-04 -3.222E-05
   1    4   68     1    68    2.1447E+00  9.3481E-04   2.1438E+00  0.000E+00  0.000E+00  0.000E+00  1.20838E+02  1.088E+00  3.114E+00  5.887E-04  9.480E-04 -1.320E-05
   1    4   69     1    69    2.1438E+00  9.3454E-04   2.1429E+00  0.000E+00  0.000E+00  0.000E+00  1.20538E+02  1.088E+00  3.114E+00  5.886E-04  9.148E-04  1.979E-05
   1    4   70     1    70    2.1429E+00  9.3427E-04   2.1419E+00  0.000E+00  0.000E+00  0.000E+00  1.20238E+02  1.088E+00  3.114E+00  5.885E-04  8.846E-04  4.963E-05
   1    4   71     1    71    2.1419E+00  9.3400E-04   2.1410E+00  0.000E+00  0.000E+00  0.000E+00  1.19937E+02  1.087E+00  3.113E+00  5.884E-04  8.843E-04  4.968E-05
   1    4   72     1    72    2.1410E+00  9.3373E-04   2.1401E+00  0.000E+00  0.000E+00  0.000E+00  1.19637E+02  1.087E+00  3.113E+00  5.883E-04  8.847E-04  4.901E-05
   1    4   73     1    73    2.1401E+00  9.3346E-04   2.1391E+00  0.000E+00  0.000E+00  0.000E+00  1.19337E+02  1.087E+00  3.113E+00  5.883E-04  8.859E-04  4.758E-05
   1    4   74     1    74    2.1391E+00  9.3319E-04   2.1382E+00  0.000E+00  0.000E+00  0.000E+00  1.19037E+02  1.087E+00  3.112E+00  5.882E-04  8.878E-04  4.542E-05
   1    4   75     1    75    2.1382E+00  9.3292E-04   2.1373E+00  0.000E+00  0.000E+00  0.000E+00  1.18736E+02  1.086E+00  3.112E+00  5.881E-04  8.903E-04  4.260E-05
   1    4   76     1    76    2.1373E+00  9.3265E-04   2.1363E+00  0.000E+00  0.000E+00  0.000E+00  1.18436E+02  1.086E+00  3.112E+00  5.880E-04  8.935E-04  3.915E-05
   1    4   77     1    77    2.1363E+00  9.3238E-04   2.1354E+00  0.000E+00  0.000E+00  0.000E+00  1.18136E+02  1.086E+00  3.112E+00  5.879E-04  8.972E-04  3.515E-05
   1    4   78     1    78    2.1354E+00  9.3211E-04   2.1345E+00  0.000E+00  0.000E+00  0.000E+00  1.17836E+02  1.086E+00  3.111E+00  5.879E-04  9.015E-04  3.064E-05
   1    4   79     1    79    2.1345E+00  9.3184E-04   2.1335E+00  0.000E+00  0.000E+00  0.000E+00  1.17535E+02  1.085E+00  3.111E+00  5.878E-04  9.062E-04  2.567E-05
   1    4   80     1    80    2.1335E+00  9.3157E-04   2.1326E+00  0.000E+00  0.000E+00  0.000E+00  1.17235E+02  1.085E+00  3.111E+00  5.877E-04  9.113E-04  2.028E-05
   1    4   81     1    81    2.1326E+00  9.3130E-04   2.1317E+00  0.000E+00  0.000E+00  0.000E+00  1.16935E+02  1.085E+00  3.110E+00  5.876E-04  9.168E-04  1.451E-05
   1    4   82     1    82    2.1317E+00  9.3103E-04   2.1308E+00  0.000E+00  0.000E+00  0.000E+00  1.16635E+02  1.085E+00  3.110E+00  5.876E-04  9.227E-04  8.372E-06
   1    4   83     1    83    2.1308E+00  9.3076E-04   2.1298E+00  0.000E+00  0.000E+00  0.000E+00  1.16334E+02  1.084E+00  3.110E+00  5.875E-04  9.289E-04  1.891E-06
   1    4   84     1    84    2.1298E+00  9.3049E-04   2.1289E+00  0.000E+00  0.000E+00  0.000E+00  1.16034E+02  1.084E+00  3.110E+00  5.874E-04  9.354E-04 -4.924E-06
   1    4   85     1    85    2.1289E+00  9.3023E-04   2.1280E+00  0.000E+00  0.000E+00  0.000E+00  1.15734E+02  1.084E+00  3.109E+00  5.873E-04  9.423E-04 -1.206E-05
   1    4   86     1    86    2.1280E+00  9.2996E-04   2.1270E+00  0.000E+00  0.000E+00  0.000E+00  1.15434E+02  1.084E+00  3.109E+00  5.872E-04  9.495E-04 -1.953E-05
   1    4   87     1    87    2.1270E+00  9.2969E-04   2.1261E+00  0.000E+00  0.000E+00  0.000E+00  1.15133E+02  1.083E+00  3.109E+00  5.872E-04  9.570E-04 -2.733E-05
   1    4   88     1    88    2.1261E+00  9.2942E-04   2.1252E+00  0.000E+00  0.000E+00  0.000E+00  1.14833E+02  1.083E+00  3.108E+00  5.871E-04  9.649E-04 -3.550E-05
   1    4   89     1    89    2.1252E+00  9.2915E-04   2.1242E+00  0.000E+00  0.000E+00  0.000E+00  1.14533E+02  1.083E+00  3.108E+00  5.870E-04  9.732E-04 -4.405E-05
   1    4   90     1    90    2.1242E+00  9.2888E-04   2.1233E+00  0.000E+00  0.000E+00  0.000E+00  1.14233E+02  1.083E+00  3.108E+00  5.869E-04  9.819E-04 -5.301E-05
   1    4   91     1    91    2.1233E+00  9.2861E-04   2.1224E+00  0.000E+00  0.000E+00  0.000E+00  1.13932E+02  1.082E+00  3.108E+00  5.868E-04  9.910E-04 -6.241E-05
   1    4   92     1    92    2.1224E+00  9.2834E-04   2.1215E+00  0.000E+00  0.000E+00  0.000E+00  1.13632E+02  1.082E+00  3.107E+00  5.868E-04  1.001E-03 -7.228E-05
   1    4   93     1    93    2.1215E+00  9.2807E-04   2.1205E+00  0.000E+00  0.000E+00  0.000E+00  1.13332E+02  1.082E+00  3.107E+00  5.867E-04  1.011E-03 -8.267E-05
   1    4   94     1    94    2.1205E+00  9.2781E-04   2.1196E+00  0.000E+00  0.000E+00  0.000E+00  1.13032E+02  1.082E+00  3.107E+00  5.866E-04  1.021E-03 -9.359E-05
   1    4   95     1    95    2.1196E+00  9.2754E-04   2.1187E+00  0.000E+00  0.000E+00  0.000E+00  1.12731E+02  1.081E+00  3.106E+00  5.865E-04  1.033E-03 -1.051E-04
   1    4   96     1    96    2.1187E+00  9.2727E-04   2.1177E+00  0.000E+00  0.000E+00  0.000E+00  1.12431E+02  1.081E+00  3.106E+00  5.864E-04  1.044E-03 -1.172E-04
   1    4   97     1    97    2.1177E+00  9.2700E-04   2.1168E+00  0.000E+00  0.000E+00  0.000E+00  1.12131E+02  1.081E+00  3.106E+00  5.864E-04  1.057E-03 -1.298E-04
   1    4   98     1    98    2.1168E+00  9.2673E-04   2.1159E+00  0.000E+00  0.000E+00  0.000E+00  1.11831E+02  1.081E+00  3.105E+00  5.863E-04  1.070E-03 -1.430E-04
   1    4   99     1    99    2.1159E+00  9.2646E-04   2.1150E+00  0.000E+00  0.000E+00  0.000E+00  1.11530E+02  1.080E+00  3.105E+00  5.862E-04  1.083E-03 -1.568E-04
   1    4  100     1   100    2.1150E+00  9.2620E-04   2.1140E+00  0.000E+00  0.000E+00  0.000E+00  1.11230E+02  1.080E+00  3.105E+00  5.861E-04  1.097E-03 -1.710E-04



1
  VOLUMETRIC BUDGET FOR UNSATURATED ZONE BENEATH STREAMS AT END OF TIME STEP    30 STRESS PERIOD  12
  ------------------------------------------------------------------------------------------------

    CUMULATIVE VOLUMES             L**3    RATES FOR THIS TIME STEP         L**3/T
    ------------------                     ------------------------


          STREAM LOSS =     13034716.0000            STREAM LOSS =        9.3958E-02
    CHANGE IN STORAGE =      1099773.5000      CHANGE IN STORAGE =       -1.5515E-02
       RECHARGE TO GW =     11938885.0000         RECHARGE TO GW =            0.1095

             TOTAL IN =     13034716.0000               TOTAL IN =            0.1095

            TOTAL OUT =     13038658.0000              TOTAL OUT =            0.1095

             IN - OUT =        -3942.0000               IN - OUT =        4.3958E-07

  PERCENT DISCREPANCY =           -0.01      PERCENT DISCREPANCY =             0.00



1
  VOLUMETRIC BUDGET FOR ENTIRE MODEL AT END OF TIME STEP   30, STRESS PERIOD  12
  ------------------------------------------------------------------------------

     CUMULATIVE VOLUMES      L**3       RATES FOR THIS TIME STEP      L**3/T
     ------------------                 ------------------------

           IN:                                      IN:
           ---                                      ---
             STORAGE     =    64734512.0000               STORAGE     =           1.5268
       CONSTANT HEAD     =           0.0000         CONSTANT HEAD     =           0.0000
               WELLS     =           0.0000                 WELLS     =           0.0000
     HEAD DEP BOUNDS     =           0.0000       HEAD DEP BOUNDS     =           0.0000
      STREAM LEAKAGE     =    11938917.0000        STREAM LEAKAGE     =           0.1095

                TOTAL IN =    76673432.0000                  TOTAL IN =           1.6362

          OUT:                                     OUT:
          ----                                     ----
             STORAGE     =     2207784.7500               STORAGE     =           0.0000
       CONSTANT HEAD     =           0.0000         CONSTANT HEAD     =           0.0000
               WELLS     =    61315856.0000                 WELLS     =           1.4600
     HEAD DEP BOUNDS     =    13149796.0000       HEAD DEP BOUNDS     =           0.1762
      STREAM LEAKAGE     =           0.0000        STREAM LEAKAGE     =           0.0000

               TOTAL OUT =    76673440.0000                 TOTAL OUT =           1.6362

                IN - OUT =          -8.0000                  IN - OUT =      -2.3842E-07

     PERCENT DISCREPANCY =          -0.00         PERCENT DISCREPANCY =          -0.00






         TIME SUMMARY AT END OF TIME STEP   30 IN STRESS PERIOD   12
                    SECONDS     MINUTES      HOURS       DAYS        YEARS
                    -----------------------------------------------------------
   TIME STEP LENGTH 2.49961E+05  4166.0      69.434      2.8931     7.92080E-03
 STRESS PERIOD TIME 2.59200E+06  43200.      720.00      30.000     8.21355E-02
         TOTAL TIME 3.11040E+07 5.18400E+05  8640.0      360.00     0.98563    
1
1
                            STRESS PERIOD NO.   13, LENGTH =   2592000.    
                            -----------------------------------------------

                              NUMBER OF TIME STEPS =    30

                               MULTIPLIER FOR DELT =     1.100

                            INITIAL TIME STEP SIZE =   15757.40    

 REUSING NON-PARAMETER WELLS FROM LAST STRESS PERIOD

      1 WELL 

 REUSING NON-PARAMETER GHB CELLS FROM LAST STRESS PERIOD

      7 GHB CELLS



 CLASSIFICATION & COUNT OF STREAM SEGMENTS BASED ON SOURCE OF INFLOW:

                HEADWATER     DIVERSION     RECEIVES TRIBUTARY FLOW
                ---------     ---------     -----------------------
                     1              0               0



                    INPUT DATA FOR EACH STREAM SEGMENT
 ---------------------------------------------------------------------------------------------

 SEGMENT    SEG.     INFLOW   OVERLAND   STREAM    STREAM   ICALC  OUTFLOW  DIVERSION PRIORITY
    NO.    LENGTH     RATE     RUNOFF      ET       PPT.    METH.  TO SEG.  FROM SEG.    NO.

      1  2.000E+04 1.268E+00 0.000E+00 0.000E+00 0.000E+00    2        0        0        0


         STREAMBED PROPERTIES AND STREAM DIMENSIONS

 SEGMENT     BED HYD. COND.      BED THICKNESS     ELEV.-TOP OF BED     WIDTH OF STREAM     DEPTH OF STREAM    STREAM ROUGHNESS
    No.     UPPER     LOWER     UPPER     LOWER     UPPER     LOWER     UPPER     LOWER     UPPER     LOWER   CHANNEL      BANK

     1  3.500E-07 3.500E-07                                                                                 3.000E-02 4.000E-02

  EIGHT POINT CROSS-SECTION DATA FOR SEGMENTS WITH ICALC = 2
    X VALUES X VALUES START FROM LEFT SIDE LOOKING DOWNSTREAM

     SEGMENT NO.        X1        X2        X3        X4        X5        X6        X7        X8
            1      0.000E+00 2.000E+00 4.000E+00 6.000E+00 8.000E+00 1.000E+01 1.200E+01 1.400E+01

    Z VALUES ARE RELATIVE TO STREAMBED ELEVATION

     SEGMENT NO.          Z1        Z2        Z3        Z4        Z5        Z6        Z7        Z8
            1      6.000E+00 4.500E+00 3.500E+00 0.000E+00 3.000E-01 3.500E+00 4.500E+00 6.000E+00



 
 SOLVING FOR HEAD 
                                                   Max.-Head-Change                         Max.-Flux-Residual
  Residual-Control   Outer-Iter.   Inner-Iter.     Column Row Layer    Maximum-Head-Change  Column Row Layer    Maximum-Flux-Residual          L2-NORM 
          0                 1           2            55    5     1      -0.1757977503E+01      55    5    1        -0.4872792148E+00      0.6911638411E+00
          0                 2           2            55    5     1       0.1794492469E+00      55    5    1         0.5499157589E-01      0.7265568383E-01
          0                 3           2            50    3     1      -0.1468465839E-01      50    3    1        -0.4247133591E-02      0.5929782540E-02
          0                 4           2            50    3     1       0.1165308858E-02      50    3    1         0.3400886092E-03      0.4784592337E-03
          0                 5           1            50    3     1      -0.8117905062E-04      50    3    1        -0.2390857272E-04      0.3361584747E-04
          0                 6           1            50    3     1       0.4874567293E-05      50    3    1         0.1448761367E-05      0.2037165174E-05
          0                 7           1            50    3     1      -0.2463055619E-06      50    3    1        -0.7387247170E-07      0.1038759717E-06

    ------------------------------------------------
       NWT REQUIRED            7 OUTER ITERATIONS 
       AND A TOTAL OF         11 INNER ITERATIONS.
    ------------------------------------------------

 NO OUTPUT CONTROL FOR STRESS PERIOD   13   TIME STEP    1
 
 WELLS WITH REDUCED PUMPING FOR STRESS PERIOD    13 TIME STEP     1
   LAY   ROW   COL         APPL.Q          ACT.Q        GW-HEAD       CELL-BOT
     1     5    55  -0.120998E+01  -0.120631E+01   0.107428E+02   0.000000E+00
 
 
 SOLVING FOR HEAD 
                                                   Max.-Head-Change                         Max.-Flux-Residual
  Residual-Control   Outer-Iter.   Inner-Iter.     Column Row Layer    Maximum-Head-Change  Column Row Layer    Maximum-Flux-Residual          L2-NORM 
          0                 1           2            50    3     1      -0.1426543374E+01      55    5    1        -0.3635945333E+00      0.5217183510E+00
          0                 2           2            55    5     1       0.2515935841E+00      55    5    1         0.8294062010E-01      0.9046168355E-01
          0                 3           2            55    5     1      -0.1923729429E-01      55    5    1        -0.6200328767E-02      0.7006237622E-02
          0                 4           2            55    5     1       0.1546569290E-02      55    5    1         0.5043471088E-03      0.5680829305E-03
          0                 5           1            55    5     1      -0.1076074653E-03      55    5    1        -0.3540549216E-04      0.3989522304E-04
          0                 6           1            55    5     1       0.6462150316E-05      55    5    1         0.2145673197E-05      0.2417787799E-05
          0                 7           1            55    5     1      -0.3265218225E-06      55    5    1        -0.1094072181E-06      0.1232838475E-06

    ------------------------------------------------
       NWT REQUIRED            7 OUTER ITERATIONS 
       AND A TOTAL OF         11 INNER ITERATIONS.
    ------------------------------------------------

 NO OUTPUT CONTROL FOR STRESS PERIOD   13   TIME STEP    2
 
 WELLS WITH REDUCED PUMPING FOR STRESS PERIOD    13 TIME STEP     2
   LAY   ROW   COL         APPL.Q          ACT.Q        GW-HEAD       CELL-BOT
     1     5    55  -0.121006E+01  -0.114914E+01   0.959222E+01   0.000000E+00
 
 
 SOLVING FOR HEAD 
                                                   Max.-Head-Change                         Max.-Flux-Residual
  Residual-Control   Outer-Iter.   Inner-Iter.     Column Row Layer    Maximum-Head-Change  Column Row Layer    Maximum-Flux-Residual          L2-NORM 
          0                 1           2            50    3     1      -0.1227172049E+01      50    3    1        -0.2701368536E+00      0.3881229633E+00
          0                 2           2            55    5     1       0.1193632319E+00      55    5    1         0.3787856755E-01      0.4914217839E-01
          0                 3           2            55    5     1      -0.1007124896E-01      55    5    1        -0.3179010733E-02      0.4040068484E-02
          0                 4           2            55    5     1       0.8034696622E-03      55    5    1         0.2563165147E-03      0.3263954780E-03
          0                 5           1            55    5     1      -0.5593949594E-04      55    5    1        -0.1800814518E-04      0.2293809679E-04
          0                 6           1            55    5     1       0.3359021309E-05      55    5    1         0.1091274105E-05      0.1390309875E-05
          0                 7           1            55    5     1      -0.1697243163E-06      55    5    1        -0.5564398609E-07      0.7089698171E-07

    ------------------------------------------------
       NWT REQUIRED            7 OUTER ITERATIONS 
       AND A TOTAL OF         11 INNER ITERATIONS.
    ------------------------------------------------

 NO OUTPUT CONTROL FOR STRESS PERIOD   13   TIME STEP    3
 
 WELLS WITH REDUCED PUMPING FOR STRESS PERIOD    13 TIME STEP     3
   LAY   ROW   COL         APPL.Q          ACT.Q        GW-HEAD       CELL-BOT
     1     3    50  -0.120997E+01  -0.120932E+01   0.110492E+02   0.000000E+00
     1     5    55  -0.120997E+01  -0.108012E+01   0.884188E+01   0.000000E+00
 
 
 SOLVING FOR HEAD 
                                                   Max.-Head-Change                         Max.-Flux-Residual
  Residual-Control   Outer-Iter.   Inner-Iter.     Column Row Layer    Maximum-Head-Change  Column Row Layer    Maximum-Flux-Residual          L2-NORM 
          0                 1           2            50    3     1      -0.1050592995E+01      50    3    1        -0.2110100503E+00      0.2966246631E+00
          0                 2           2            50    3     1       0.1854421398E+00      50    3    1         0.4901721206E-01      0.5469315478E-01
          0                 3           2            50    3     1      -0.1423765708E-01      50    3    1        -0.3650737516E-02      0.4231873239E-02
          0                 4           2            50    3     1       0.1143691619E-02      50    3    1         0.2970268366E-03      0.3434161505E-03
          0                 5           1            50    3     1      -0.7956497394E-04      50    3    1        -0.2085105465E-04      0.2412802294E-04
          0                 6           1            50    3     1       0.4777648117E-05      50    3    1         0.1263633443E-05      0.1462605659E-05
          0                 7           1            50    3     1      -0.2413973194E-06      50    3    1        -0.6443218437E-07      0.7458661322E-07

    ------------------------------------------------
       NWT REQUIRED            7 OUTER ITERATIONS 
       AND A TOTAL OF         11 INNER ITERATIONS.
    ------------------------------------------------

 NO OUTPUT CONTROL FOR STRESS PERIOD   13   TIME STEP    4
 
 WELLS WITH REDUCED PUMPING FOR STRESS PERIOD    13 TIME STEP     4
   LAY   ROW   COL         APPL.Q          ACT.Q        GW-HEAD       CELL-BOT
     1     3    50  -0.121005E+01  -0.118128E+01   0.101709E+02   0.000000E+00
     1     5    55  -0.121005E+01  -0.102606E+01   0.836659E+01   0.000000E+00
 
 
 SOLVING FOR HEAD 
                                                   Max.-Head-Change                         Max.-Flux-Residual
  Residual-Control   Outer-Iter.   Inner-Iter.     Column Row Layer    Maximum-Head-Change  Column Row Layer    Maximum-Flux-Residual          L2-NORM 
          0                 1           2            50    3     1      -0.7216965343E+00      50    3    1        -0.1506920150E+00      0.2277162104E+00
          0                 2           2            50    3     1       0.1030904727E+00      50    3    1         0.2617302245E-01      0.3168175200E-01
          0                 3           2            50    3     1      -0.8593072353E-02      50    3    1        -0.2153661452E-02      0.2684812775E-02
          0                 4           2            50    3     1       0.6857648634E-03      50    3    1         0.1739360974E-03      0.2167306842E-03
          0                 5           1            50    3     1      -0.4772431012E-04      50    3    1        -0.1221845796E-04      0.1525194464E-04
          0                 6           1            50    3     1       0.2865220901E-05      50    3    1         0.7404316474E-06      0.9250461548E-06
          0                 7           1            50    3     1      -0.1447615369E-06      50    3    1        -0.3775437385E-07      0.4718628304E-07

    ------------------------------------------------
       NWT REQUIRED            7 OUTER ITERATIONS 
       AND A TOTAL OF         11 INNER ITERATIONS.
    ------------------------------------------------

 NO OUTPUT CONTROL FOR STRESS PERIOD   13   TIME STEP    5
 
 WELLS WITH REDUCED PUMPING FOR STRESS PERIOD    13 TIME STEP     5
   LAY   ROW   COL         APPL.Q          ACT.Q        GW-HEAD       CELL-BOT
     1     3    50  -0.120998E+01  -0.113847E+01   0.954435E+01   0.000000E+00
     1     5    55  -0.120998E+01  -0.987482E+00   0.806048E+01   0.000000E+00
 
 
 SOLVING FOR HEAD 
                                                   Max.-Head-Change                         Max.-Flux-Residual
  Residual-Control   Outer-Iter.   Inner-Iter.     Column Row Layer    Maximum-Head-Change  Column Row Layer    Maximum-Flux-Residual          L2-NORM 
          0                 1           2            50    3     1      -0.4915515460E+00      50    3    1        -0.9781640460E-01      0.1785006789E+00
          0                 2           2            50    3     1       0.6138909068E-01      50    3    1         0.1430060551E-01      0.2071524595E-01
          0                 3           2            50    3     1      -0.5276591513E-02      50    3    1        -0.1223287621E-02      0.1825949555E-02
          0                 4           2            50    3     1       0.4196055408E-03      50    3    1         0.9846265608E-04      0.1473294696E-03
          0                 5           1            50    3     1      -0.2919627656E-04      50    3    1        -0.6918813990E-05      0.1039346824E-04
          0                 6           1            50    3     1       0.1752378965E-05      50    3    1         0.4192629856E-06      0.6311969733E-06
          0                 7           1            50    3     1      -0.8852578407E-07      50    3    1        -0.2137796262E-07      0.3221855539E-07

    ------------------------------------------------
       NWT REQUIRED            7 OUTER ITERATIONS 
       AND A TOTAL OF         11 INNER ITERATIONS.
    ------------------------------------------------

 NO OUTPUT CONTROL FOR STRESS PERIOD   13   TIME STEP    6
 
 WELLS WITH REDUCED PUMPING FOR STRESS PERIOD    13 TIME STEP     6
   LAY   ROW   COL         APPL.Q          ACT.Q        GW-HEAD       CELL-BOT
     1     3    50  -0.121003E+01  -0.109928E+01   0.910930E+01   0.000000E+00
     1     5    55  -0.121003E+01  -0.959954E+00   0.785282E+01   0.000000E+00
 
 
 SOLVING FOR HEAD 
                                                   Max.-Head-Change                         Max.-Flux-Residual
  Residual-Control   Outer-Iter.   Inner-Iter.     Column Row Layer    Maximum-Head-Change  Column Row Layer    Maximum-Flux-Residual          L2-NORM 
          0                 1           2            50    2     1      -0.3478886406E+00      50    3    1        -0.6172349149E-01      0.1484981421E+00
          0                 2           2            50    3     1       0.3967305841E-01      50    3    1         0.8208262096E-02      0.1567597114E-01
          0                 3           2            50    3     1      -0.3451606441E-02      50    3    1        -0.7139885631E-03      0.1407070442E-02
          0                 4           2            50    3     1       0.2738161978E-03      50    3    1         0.5737985634E-04      0.1138028361E-03
          0                 5           1            50    3     1      -0.1904118908E-04      50    3    1        -0.4032557696E-05      0.8053819286E-05
          0                 6           1            50    3     1       0.1142375947E-05      50    3    1         0.2443564011E-06      0.4900725581E-06
          0                 7           1            50    3     1      -0.5769721633E-07      50    3    1        -0.1245938552E-07      0.2504193169E-07

    ------------------------------------------------
       NWT REQUIRED            7 OUTER ITERATIONS 
       AND A TOTAL OF         11 INNER ITERATIONS.
    ------------------------------------------------

 NO OUTPUT CONTROL FOR STRESS PERIOD   13   TIME STEP    7
 
 WELLS WITH REDUCED PUMPING FOR STRESS PERIOD    13 TIME STEP     7
   LAY   ROW   COL         APPL.Q          ACT.Q        GW-HEAD       CELL-BOT
     1     3    50  -0.121003E+01  -0.106737E+01   0.880191E+01   0.000000E+00
     1     5    55  -0.121003E+01  -0.939267E+00   0.770195E+01   0.000000E+00
 
 
 SOLVING FOR HEAD 
                                                   Max.-Head-Change                         Max.-Flux-Residual
  Residual-Control   Outer-Iter.   Inner-Iter.     Column Row Layer    Maximum-Head-Change  Column Row Layer    Maximum-Flux-Residual          L2-NORM 
          0                 1           2            50    2     1      -0.3105302656E+00      50    2    1        -0.4071532683E-01      0.1307521180E+00
          0                 2           2            50    2     1       0.3090428070E-01      50    3    1         0.5014971120E-02      0.1323883784E-01
          0                 3           2            50    2     1      -0.2748147464E-02      50    3    1        -0.4395777227E-03      0.1198995997E-02
          0                 4           2            50    2     1       0.2179190033E-03      50    3    1         0.3530087149E-04      0.9730188343E-04
          0                 5           1            50    2     1      -0.1517034253E-04      50    3    1        -0.2481049339E-05      0.6908642747E-05
          0                 6           1            50    2     1       0.9105770106E-06      50    3    1         0.1503364266E-06      0.4213175481E-06

    ------------------------------------------------
       NWT REQUIRED            6 OUTER ITERATIONS 
       AND A TOTAL OF         10 INNER ITERATIONS.
    ------------------------------------------------

 NO OUTPUT CONTROL FOR STRESS PERIOD   13   TIME STEP    8
 
 WELLS WITH REDUCED PUMPING FOR STRESS PERIOD    13 TIME STEP     8
   LAY   ROW   COL         APPL.Q          ACT.Q        GW-HEAD       CELL-BOT
     1     3    50  -0.120997E+01  -0.104170E+01   0.857478E+01   0.000000E+00
     1     5    55  -0.120997E+01  -0.922710E+00   0.758425E+01   0.000000E+00
 
 
 SOLVING FOR HEAD 
                                                   Max.-Head-Change                         Max.-Flux-Residual
  Residual-Control   Outer-Iter.   Inner-Iter.     Column Row Layer    Maximum-Head-Change  Column Row Layer    Maximum-Flux-Residual          L2-NORM 
          0                 1           2            50    1     1      -0.2823659683E+00      50    2    1        -0.3308148306E-01      0.1196342979E+00
          0                 2           2            50    1     1       0.2788028895E-01      50    3    1         0.3303388871E-02      0.1190847150E-01
          0                 3           2            50    1     1      -0.2484888470E-02      50    2    1        -0.2935023737E-03      0.1084140018E-02
          0                 4           2            50    1     1       0.1971239400E-03      50    2    1         0.2350599739E-04      0.8828886874E-04
          0                 5           1            50    1     1      -0.1372738138E-04      50    2    1        -0.1652471243E-05      0.6288438799E-05
          0                 6           1            50    1     1       0.8240777871E-06      50    2    1         0.1001331177E-06      0.3843591551E-06

    ------------------------------------------------
       NWT REQUIRED            6 OUTER ITERATIONS 
       AND A TOTAL OF         10 INNER ITERATIONS.
    ------------------------------------------------

 NO OUTPUT CONTROL FOR STRESS PERIOD   13   TIME STEP    9
 
 WELLS WITH REDUCED PUMPING FOR STRESS PERIOD    13 TIME STEP     9
   LAY   ROW   COL         APPL.Q          ACT.Q        GW-HEAD       CELL-BOT
     1     3    50  -0.121002E+01  -0.102056E+01   0.839672E+01   0.000000E+00
     1     5    55  -0.121002E+01  -0.908737E+00   0.748599E+01   0.000000E+00
 
 
 SOLVING FOR HEAD 
                                                   Max.-Head-Change                         Max.-Flux-Residual
  Residual-Control   Outer-Iter.   Inner-Iter.     Column Row Layer    Maximum-Head-Change  Column Row Layer    Maximum-Flux-Residual          L2-NORM 
          0                 1           2            50    1     1      -0.2738748047E+00      50    1    1        -0.2736860437E-01      0.1119189553E+00
          0                 2           2            50    1     1       0.2697450249E-01      50    1    1         0.2714805501E-02      0.1105462976E-01
          0                 3           2            50    1     1      -0.2404265601E-02      50    1    1        -0.2445441314E-03      0.1010171004E-02
          0                 4           2            50    1     1       0.1906916433E-03      50    1    1         0.1958628326E-04      0.8255844502E-04
          0                 5           1            50    1     1      -0.1327796813E-04      50    1    1        -0.1376907520E-05      0.5898895081E-05
          0                 6           1            50    1     1       0.7970109487E-06      50    1    1         0.8342476421E-07      0.3614072801E-06

    ------------------------------------------------
       NWT REQUIRED            6 OUTER ITERATIONS 
       AND A TOTAL OF         10 INNER ITERATIONS.
    ------------------------------------------------

 NO OUTPUT CONTROL FOR STRESS PERIOD   13   TIME STEP   10
 
 WELLS WITH REDUCED PUMPING FOR STRESS PERIOD    13 TIME STEP    10
   LAY   ROW   COL         APPL.Q          ACT.Q        GW-HEAD       CELL-BOT
     1     3    50  -0.121003E+01  -0.100232E+01   0.824931E+01   0.000000E+00
     1     5    55  -0.121003E+01  -0.896293E+00   0.739983E+01   0.000000E+00
 
 
 SOLVING FOR HEAD 
                                                   Max.-Head-Change                         Max.-Flux-Residual
  Residual-Control   Outer-Iter.   Inner-Iter.     Column Row Layer    Maximum-Head-Change  Column Row Layer    Maximum-Flux-Residual          L2-NORM 
          0                 1           2            50    1     1      -0.2627270738E+00      50    1    1        -0.2413835601E-01      0.1060554001E+00
          0                 2           2            50    1     1       0.2583656410E-01      50    1    1         0.2390066153E-02      0.1042493242E-01
          0                 3           2            50    1     1      -0.2302486583E-02      50    1    1        -0.2153338729E-03      0.9563264223E-03
          0                 4           2            50    1     1       0.1825768825E-03      50    1    1         0.1724640956E-04      0.7849422139E-04
          0                 5           1            50    1     1      -0.1271100288E-04      50    1    1        -0.1212417504E-05      0.5627508156E-05
          0                 6           1            50    1     1       0.7628634328E-06      50    1    1         0.7345373498E-07      0.3456062579E-06

    ------------------------------------------------
       NWT REQUIRED            6 OUTER ITERATIONS 
       AND A TOTAL OF         10 INNER ITERATIONS.
    ------------------------------------------------

 NO OUTPUT CONTROL FOR STRESS PERIOD   13   TIME STEP   11
 
 WELLS WITH REDUCED PUMPING FOR STRESS PERIOD    13 TIME STEP    11
   LAY   ROW   COL         APPL.Q          ACT.Q        GW-HEAD       CELL-BOT
     1     3    50  -0.120998E+01  -0.985995E+00   0.812155E+01   0.000000E+00
     1     5    55  -0.120998E+01  -0.884902E+00   0.732211E+01   0.000000E+00
 
 
 SOLVING FOR HEAD 
                                                   Max.-Head-Change                         Max.-Flux-Residual
  Residual-Control   Outer-Iter.   Inner-Iter.     Column Row Layer    Maximum-Head-Change  Column Row Layer    Maximum-Flux-Residual          L2-NORM 
          0                 1           2            50    1     1      -0.2505988334E+00      50    1    1        -0.2105396292E-01      0.1014218615E+00
          0                 2           2            50    1     1       0.2462046209E-01      50    1    1         0.2082790464E-02      0.9954985216E-02
          0                 3           2            50    1     1      -0.2193394299E-02      50    1    1        -0.1876679336E-03      0.9160909555E-03
          0                 4           2            50    1     1       0.1738762622E-03      50    1    1         0.1503045411E-04      0.7547646859E-04
          0                 5           1            50    1     1      -0.1210281631E-04      50    1    1        -0.1056637448E-05      0.5430063424E-05
          0                 6           1            50    1     1       0.7262136250E-06      50    1    1         0.6401007902E-07      0.3343944812E-06

    ------------------------------------------------
       NWT REQUIRED            6 OUTER ITERATIONS 
       AND A TOTAL OF         10 INNER ITERATIONS.
    ------------------------------------------------

 NO OUTPUT CONTROL FOR STRESS PERIOD   13   TIME STEP   12
 
 WELLS WITH REDUCED PUMPING FOR STRESS PERIOD    13 TIME STEP    12
   LAY   ROW   COL         APPL.Q          ACT.Q        GW-HEAD       CELL-BOT
     1     3    50  -0.121001E+01  -0.970973E+00   0.800643E+01   0.000000E+00
     1     5    55  -0.121001E+01  -0.874226E+00   0.724960E+01   0.000000E+00
 
 
 SOLVING FOR HEAD 
                                                   Max.-Head-Change                         Max.-Flux-Residual
  Residual-Control   Outer-Iter.   Inner-Iter.     Column Row Layer    Maximum-Head-Change  Column Row Layer    Maximum-Flux-Residual          L2-NORM 
          0                 1           2            50    1     1      -0.2385916599E+00      50    1    1        -0.1825808035E-01      0.9757628630E-01
          0                 2           2            50    1     1       0.2342593803E-01      50    1    1         0.1805756787E-02      0.9568090510E-02
          0                 3           2            50    1     1      -0.2085951062E-02      50    1    1        -0.1627108138E-03      0.8832225021E-03
          0                 4           2            50    1     1       0.1652993958E-03      50    1    1         0.1303157845E-04      0.7305182160E-04
          0                 5           1            50    1     1      -0.1150278656E-04      50    1    1        -0.9161172418E-06      0.5274948492E-05
          0                 6           1            50    1     1       0.6900214212E-06      50    1    1         0.5549068216E-07      0.3257955666E-06

    ------------------------------------------------
       NWT REQUIRED            6 OUTER ITERATIONS 
       AND A TOTAL OF         10 INNER ITERATIONS.
    ------------------------------------------------

 NO OUTPUT CONTROL FOR STRESS PERIOD   13   TIME STEP   13
 
 WELLS WITH REDUCED PUMPING FOR STRESS PERIOD    13 TIME STEP    13
   LAY   ROW   COL         APPL.Q          ACT.Q        GW-HEAD       CELL-BOT
     1     3    50  -0.121001E+01  -0.956776E+00   0.790001E+01   0.000000E+00
     1     5    55  -0.121001E+01  -0.863880E+00   0.718005E+01   0.000000E+00
 
 
 SOLVING FOR HEAD 
                                                   Max.-Head-Change                         Max.-Flux-Residual
  Residual-Control   Outer-Iter.   Inner-Iter.     Column Row Layer    Maximum-Head-Change  Column Row Layer    Maximum-Flux-Residual          L2-NORM 
          0                 1           2            50    1     1      -0.2272950647E+00      50    1    1        -0.1580389432E-01      0.9421589198E-01
          0                 2           2            50    1     1       0.2226303644E-01      50    1    1         0.1563302219E-02      0.9213388529E-02
          0                 3           2            50    1     1      -0.1978443002E-02      50    1    1        -0.1408651830E-03      0.8529205084E-03
          0                 4           2            50    1     1       0.1565371384E-03      50    1    1         0.1128192030E-04      0.7086894350E-04
          0                 5           1            50    1     1      -0.1088023107E-04      50    1    1        -0.7931169602E-06      0.5140485222E-05
          0                 6           1            50    1     1       0.6520322006E-06      50    1    1         0.4803200127E-07      0.3186499455E-06

    ------------------------------------------------
       NWT REQUIRED            6 OUTER ITERATIONS 
       AND A TOTAL OF         10 INNER ITERATIONS.
    ------------------------------------------------

 NO OUTPUT CONTROL FOR STRESS PERIOD   13   TIME STEP   14
 
 WELLS WITH REDUCED PUMPING FOR STRESS PERIOD    13 TIME STEP    14
   LAY   ROW   COL         APPL.Q          ACT.Q        GW-HEAD       CELL-BOT
     1     3    50  -0.120998E+01  -0.943214E+00   0.780038E+01   0.000000E+00
     1     5    55  -0.120998E+01  -0.853709E+00   0.711238E+01   0.000000E+00
 
 
 SOLVING FOR HEAD 
                                                   Max.-Head-Change                         Max.-Flux-Residual
  Residual-Control   Outer-Iter.   Inner-Iter.     Column Row Layer    Maximum-Head-Change  Column Row Layer    Maximum-Flux-Residual          L2-NORM 
          0                 1           2            51    1     1      -0.2266762360E+00      50    1    1        -0.1368996949E-01      0.9128288951E-01
          0                 2           2            51    1     1       0.2210292312E-01      50    1    1         0.1354888394E-02      0.8923441038E-02
          0                 3           2            51    1     1      -0.1957666365E-02      50    1    1        -0.1220801610E-03      0.8287890345E-03
          0                 4           2            51    1     1       0.1545869320E-03      50    1    1         0.9777462362E-05      0.6916822239E-04
          0                 5           1            51    1     1      -0.1073303679E-04      50    1    1        -0.6873536320E-06      0.5038101369E-05
          0                 6           1            51    1     1       0.6429278383E-06      50    1    1         0.4161793321E-07      0.3133350325E-06

    ------------------------------------------------
       NWT REQUIRED            6 OUTER ITERATIONS 
       AND A TOTAL OF         10 INNER ITERATIONS.
    ------------------------------------------------

 NO OUTPUT CONTROL FOR STRESS PERIOD   13   TIME STEP   15
 
 WELLS WITH REDUCED PUMPING FOR STRESS PERIOD    13 TIME STEP    15
   LAY   ROW   COL         APPL.Q          ACT.Q        GW-HEAD       CELL-BOT
     1     3    50  -0.120999E+01  -0.930135E+00   0.770565E+01   0.000000E+00
     1     5    55  -0.120999E+01  -0.843632E+00   0.704568E+01   0.000000E+00
 
 
 SOLVING FOR HEAD 
                                                   Max.-Head-Change                         Max.-Flux-Residual
  Residual-Control   Outer-Iter.   Inner-Iter.     Column Row Layer    Maximum-Head-Change  Column Row Layer    Maximum-Flux-Residual          L2-NORM 
          0                 1           2            51    1     1      -0.2310953864E+00      51    1    1        -0.1241668793E-01      0.8866185322E-01
          0                 2           2            51    1     1       0.2246288558E-01      51    1    1         0.1233097566E-02      0.8665569804E-02
          0                 3           2            51    1     1      -0.1987597178E-02      51    1    1        -0.1110788487E-03      0.8078433694E-03
          0                 4           2            51    1     1       0.1568287160E-03      51    1    1         0.8896539256E-05      0.6775130965E-04
          0                 5           1            51    1     1      -0.1088306993E-04      51    1    1        -0.6254239607E-06      0.4956762291E-05
          0                 6           1            51    1     1       0.6515942367E-06      51    1    1         0.3789819070E-07      0.3092749579E-06

    ------------------------------------------------
       NWT REQUIRED            6 OUTER ITERATIONS 
       AND A TOTAL OF         10 INNER ITERATIONS.
    ------------------------------------------------

 NO OUTPUT CONTROL FOR STRESS PERIOD   13   TIME STEP   16
 
 WELLS WITH REDUCED PUMPING FOR STRESS PERIOD    13 TIME STEP    16
   LAY   ROW   COL         APPL.Q          ACT.Q        GW-HEAD       CELL-BOT
     1     3    50  -0.120999E+01  -0.917234E+00   0.761356E+01   0.000000E+00
     1     5    55  -0.120999E+01  -0.833596E+00   0.697970E+01   0.000000E+00
 
 
 SOLVING FOR HEAD 
                                                   Max.-Head-Change                         Max.-Flux-Residual
  Residual-Control   Outer-Iter.   Inner-Iter.     Column Row Layer    Maximum-Head-Change  Column Row Layer    Maximum-Flux-Residual          L2-NORM 
          0                 1           2            51    1     1      -0.2352117909E+00      51    1    1        -0.1151142919E-01      0.8625868207E-01
          0                 2           2            51    1     1       0.2278185647E-01      51    1    1         0.1142409563E-02      0.8430408100E-02
          0                 3           2            51    1     1      -0.2013634033E-02      51    1    1        -0.1029209959E-03      0.7882104944E-03
          0                 4           2            51    1     1       0.1587567364E-03      51    1    1         0.8243057503E-05      0.6637464776E-04
          0                 5           1            51    1     1      -0.1101051496E-04      51    1    1        -0.5794850825E-06      0.4877282404E-05
          0                 6           1            51    1     1       0.6588179473E-06      51    1    1         0.3511447588E-07      0.3054216012E-06

    ------------------------------------------------
       NWT REQUIRED            6 OUTER ITERATIONS 
       AND A TOTAL OF         10 INNER ITERATIONS.
    ------------------------------------------------

 NO OUTPUT CONTROL FOR STRESS PERIOD   13   TIME STEP   17
 
 WELLS WITH REDUCED PUMPING FOR STRESS PERIOD    13 TIME STEP    17
   LAY   ROW   COL         APPL.Q          ACT.Q        GW-HEAD       CELL-BOT
     1     3    50  -0.120999E+01  -0.904431E+00   0.752343E+01   0.000000E+00
     1     5    55  -0.120999E+01  -0.823476E+00   0.691364E+01   0.000000E+00
 
 
 SOLVING FOR HEAD 
                                                   Max.-Head-Change                         Max.-Flux-Residual
  Residual-Control   Outer-Iter.   Inner-Iter.     Column Row Layer    Maximum-Head-Change  Column Row Layer    Maximum-Flux-Residual          L2-NORM 
          0                 1           2            51    1     1      -0.2393540558E+00      51    1    1        -0.1065495151E-01      0.8402228248E-01
          0                 2           2            51    1     1       0.2310170981E-01      51    1    1         0.1056887131E-02      0.8211034664E-02
          0                 3           2            51    1     1      -0.2033750222E-02      51    1    1        -0.9522510185E-04      0.7709162893E-03
          0                 4           2            51    1     1       0.1600586696E-03      51    1    1         0.7626577890E-05      0.6523399522E-04
          0                 5           1            51    1     1      -0.1109541639E-04      52    4    1         0.5614730052E-06      0.4814141230E-05
          0                 6           1            51    1     1       0.6638656052E-06      52    4    1        -0.3484553646E-07      0.3023838562E-06

    ------------------------------------------------
       NWT REQUIRED            6 OUTER ITERATIONS 
       AND A TOTAL OF         10 INNER ITERATIONS.
    ------------------------------------------------

 NO OUTPUT CONTROL FOR STRESS PERIOD   13   TIME STEP   18
 
 WELLS WITH REDUCED PUMPING FOR STRESS PERIOD    13 TIME STEP    18
   LAY   ROW   COL         APPL.Q          ACT.Q        GW-HEAD       CELL-BOT
     1     3    50  -0.121001E+01  -0.891684E+00   0.743467E+01   0.000000E+00
     1     5    55  -0.121001E+01  -0.813233E+00   0.684707E+01   0.000000E+00
 
 
 SOLVING FOR HEAD 
                                                   Max.-Head-Change                         Max.-Flux-Residual
  Residual-Control   Outer-Iter.   Inner-Iter.     Column Row Layer    Maximum-Head-Change  Column Row Layer    Maximum-Flux-Residual          L2-NORM 
          0                 1           3            51    1     1      -0.2437351950E+00      51    1    1        -0.9859949192E-02      0.8189564009E-01
          0                 2           2            51    1     1       0.2345663376E-01      51    1    1         0.9776920821E-03      0.8000127855E-02
          0                 3           2            51    1     1      -0.2060442077E-02      51    1    1        -0.8809619128E-04      0.7528276769E-03
          0                 4           2            51    1     1       0.1618961294E-03      52    4    1        -0.7447207475E-05      0.6397858532E-04
          0                 5           1            51    1     1      -0.1121023369E-04      52    4    1         0.5785703836E-06      0.4744912907E-05
          0                 6           1            51    1     1       0.6699964503E-06      52    4    1        -0.3617114452E-07      0.2992153027E-06

    ------------------------------------------------
       NWT REQUIRED            6 OUTER ITERATIONS 
       AND A TOTAL OF         11 INNER ITERATIONS.
    ------------------------------------------------

 NO OUTPUT CONTROL FOR STRESS PERIOD   13   TIME STEP   19
 
 WELLS WITH REDUCED PUMPING FOR STRESS PERIOD    13 TIME STEP    19
   LAY   ROW   COL         APPL.Q          ACT.Q        GW-HEAD       CELL-BOT
     1     3    50  -0.121000E+01  -0.878951E+00   0.734718E+01   0.000000E+00
     1     5    55  -0.121000E+01  -0.802807E+00   0.677986E+01   0.000000E+00
 
 
 SOLVING FOR HEAD 
                                                   Max.-Head-Change                         Max.-Flux-Residual
  Residual-Control   Outer-Iter.   Inner-Iter.     Column Row Layer    Maximum-Head-Change  Column Row Layer    Maximum-Flux-Residual          L2-NORM 
          0                 1           3            52    1     1      -0.2540458871E+00      51    1    1        -0.9130059580E-02      0.7987074793E-01
          0                 2           2            52    1     1       0.2422835394E-01      51    1    1         0.9051190484E-03      0.7797522378E-02
          0                 3           2            52    1     1      -0.2113786027E-02      51    1    1        -0.8156189782E-04      0.7348856409E-03
          0                 4           2            52    1     1       0.1655544268E-03      52    4    1        -0.7392230185E-05      0.6270219806E-04
          0                 5           1            52    1     1      -0.1144847405E-04      52    4    1         0.5858646162E-06      0.4673198901E-05
          0                 6           1            52    1     1       0.6820929842E-06      52    4    1        -0.3708848628E-07      0.2958335645E-06

    ------------------------------------------------
       NWT REQUIRED            6 OUTER ITERATIONS 
       AND A TOTAL OF         11 INNER ITERATIONS.
    ------------------------------------------------

 NO OUTPUT CONTROL FOR STRESS PERIOD   13   TIME STEP   20
 
 WELLS WITH REDUCED PUMPING FOR STRESS PERIOD    13 TIME STEP    20
   LAY   ROW   COL         APPL.Q          ACT.Q        GW-HEAD       CELL-BOT
     1     3    50  -0.120999E+01  -0.866183E+00   0.726041E+01   0.000000E+00
     1     5    55  -0.120999E+01  -0.792158E+00   0.671161E+01   0.000000E+00
 
 
 SOLVING FOR HEAD 
                                                   Max.-Head-Change                         Max.-Flux-Residual
  Residual-Control   Outer-Iter.   Inner-Iter.     Column Row Layer    Maximum-Head-Change  Column Row Layer    Maximum-Flux-Residual          L2-NORM 
          0                 1           3            52    1     1      -0.2685121202E+00      52    1    1        -0.8658256827E-02      0.7790935602E-01
          0                 2           2            52    1     1       0.2552288207E-01      52    1    1         0.8622467504E-03      0.7603925204E-02
          0                 3           2            52    1     1      -0.2220860384E-02      52    1    1        -0.7767623086E-04      0.7183709678E-03
          0                 4           2            52    1     1       0.1735549576E-03      52    4    1        -0.7375777673E-05      0.6154502860E-04
          0                 5           1            52    1     1      -0.1198134930E-04      52    4    1         0.5922291499E-06      0.4608188260E-05
          0                 6           1            52    1     1       0.7118601254E-06      52    4    1        -0.3782732128E-07      0.2926689611E-06

    ------------------------------------------------
       NWT REQUIRED            6 OUTER ITERATIONS 
       AND A TOTAL OF         11 INNER ITERATIONS.
    ------------------------------------------------

 NO OUTPUT CONTROL FOR STRESS PERIOD   13   TIME STEP   21
 
 WELLS WITH REDUCED PUMPING FOR STRESS PERIOD    13 TIME STEP    21
   LAY   ROW   COL         APPL.Q          ACT.Q        GW-HEAD       CELL-BOT
     1     3    50  -0.121000E+01  -0.853316E+00   0.717373E+01   0.000000E+00
     1     5    55  -0.121000E+01  -0.781263E+00   0.664206E+01   0.000000E+00
 
 
 SOLVING FOR HEAD 
                                                   Max.-Head-Change                         Max.-Flux-Residual
  Residual-Control   Outer-Iter.   Inner-Iter.     Column Row Layer    Maximum-Head-Change  Column Row Layer    Maximum-Flux-Residual          L2-NORM 
          0                 1           3            52    1     1      -0.2822546295E+00      52    1    1        -0.8321835660E-02      0.7597579806E-01
          0                 2           2            52    1     1       0.2673988841E-01      52    1    1         0.8279178447E-03      0.7414328333E-02
          0                 3           2            52    1     1      -0.2320753443E-02      52    1    1        -0.7459565157E-04      0.7017579466E-03
          0                 4           2            52    1     1       0.1809291836E-03      52    4    1        -0.7289546359E-05      0.6038924332E-04
          0                 5           1            52    1     1      -0.1246614404E-04      52    4    1         0.5925671596E-06      0.4544382419E-05
          0                 6           1            52    1     1       0.7380307013E-06      52    4    1        -0.3819014505E-07      0.2894914376E-06

    ------------------------------------------------
       NWT REQUIRED            6 OUTER ITERATIONS 
       AND A TOTAL OF         11 INNER ITERATIONS.
    ------------------------------------------------

 NO OUTPUT CONTROL FOR STRESS PERIOD   13   TIME STEP   22
 
 WELLS WITH REDUCED PUMPING FOR STRESS PERIOD    13 TIME STEP    22
   LAY   ROW   COL         APPL.Q          ACT.Q        GW-HEAD       CELL-BOT
     1     3    50  -0.120999E+01  -0.840328E+00   0.708716E+01   0.000000E+00
     1     5    55  -0.120999E+01  -0.770150E+00   0.657158E+01   0.000000E+00
 
 
 SOLVING FOR HEAD 
                                                   Max.-Head-Change                         Max.-Flux-Residual
  Residual-Control   Outer-Iter.   Inner-Iter.     Column Row Layer    Maximum-Head-Change  Column Row Layer    Maximum-Flux-Residual          L2-NORM 
          0                 1           3            52    7     1      -0.2958984686E+00      52    1    1        -0.7954872232E-02      0.7407586657E-01
          0                 2           2            52    7     1       0.2793805684E-01      52    1    1         0.7905678451E-03      0.7226438808E-02
          0                 3           2            52    7     1      -0.2416578282E-02      52    1    1        -0.7124191899E-04      0.6850305633E-03
          0                 4           2            52    7     1       0.1878217540E-03      52    4    1        -0.7129341602E-05      0.5915455659E-04
          0                 5           1            52    7     1      -0.1290721507E-04      52    4    1         0.5868851967E-06      0.4472281489E-05
          0                 6           1            52    7     1       0.7605688335E-06      52    4    1        -0.3818146221E-07      0.2856666202E-06

    ------------------------------------------------
       NWT REQUIRED            6 OUTER ITERATIONS 
       AND A TOTAL OF         11 INNER ITERATIONS.
    ------------------------------------------------

 NO OUTPUT CONTROL FOR STRESS PERIOD   13   TIME STEP   23
 
 WELLS WITH REDUCED PUMPING FOR STRESS PERIOD    13 TIME STEP    23
   LAY   ROW   COL         APPL.Q          ACT.Q        GW-HEAD       CELL-BOT
     1     3    50  -0.121000E+01  -0.827229E+00   0.700052E+01   0.000000E+00
     1     5    55  -0.121000E+01  -0.758718E+00   0.649934E+01   0.000000E+00
 
 
 SOLVING FOR HEAD 
                                                   Max.-Head-Change                         Max.-Flux-Residual
  Residual-Control   Outer-Iter.   Inner-Iter.     Column Row Layer    Maximum-Head-Change  Column Row Layer    Maximum-Flux-Residual          L2-NORM 
          0                 1           3            52    7     1      -0.3088328860E+00      52    7    1        -0.7583511684E-02      0.7224137309E-01
          0                 2           2            52    7     1       0.2906542335E-01      52    7    1         0.7537241520E-03      0.7040053487E-02
          0                 3           2            52    7     1      -0.2507746988E-02      52    7    1        -0.6792495633E-04      0.6674295266E-03
          0                 4           2            52    7     1       0.1944074365E-03      52    4    1        -0.6904613709E-05      0.5779687105E-04
          0                 5           1            52    7     1      -0.1332746220E-04      52    4    1         0.5754636785E-06      0.4389308484E-05
          0                 6           1            52    7     1       0.7808045400E-06      52    4    1        -0.3779954572E-07      0.2809621190E-06

    ------------------------------------------------
       NWT REQUIRED            6 OUTER ITERATIONS 
       AND A TOTAL OF         11 INNER ITERATIONS.
    ------------------------------------------------

 NO OUTPUT CONTROL FOR STRESS PERIOD   13   TIME STEP   24
 
 WELLS WITH REDUCED PUMPING FOR STRESS PERIOD    13 TIME STEP    24
   LAY   ROW   COL         APPL.Q          ACT.Q        GW-HEAD       CELL-BOT
     1     3    50  -0.120999E+01  -0.813985E+00   0.691373E+01   0.000000E+00
     1     5    55  -0.120999E+01  -0.746975E+00   0.642556E+01   0.000000E+00
 
 
 SOLVING FOR HEAD 
                                                   Max.-Head-Change                         Max.-Flux-Residual
  Residual-Control   Outer-Iter.   Inner-Iter.     Column Row Layer    Maximum-Head-Change  Column Row Layer    Maximum-Flux-Residual          L2-NORM 
          0                 1           3            52    7     1      -0.3202097035E+00      52    7    1        -0.7197522589E-02      0.7048233064E-01
          0                 2           2            52    7     1       0.3001084381E-01      52    7    1         0.7145870455E-03      0.6862890587E-02
          0                 3           2            52    7     1      -0.2583814033E-02      52    7    1        -0.6440820292E-04      0.6511073587E-03
          0                 4           2            52    7     1       0.1998127796E-03      52    4    1        -0.6521597437E-05      0.5654024441E-04
          0                 5           1            52    7     1      -0.1366263944E-04      52    4    1         0.5528223666E-06      0.4311694467E-05
          0                 6           1            52    7     1       0.7945628239E-06      52    4    1        -0.3680711758E-07      0.2762042219E-06

    ------------------------------------------------
       NWT REQUIRED            6 OUTER ITERATIONS 
       AND A TOTAL OF         11 INNER ITERATIONS.
    ------------------------------------------------

 NO OUTPUT CONTROL FOR STRESS PERIOD   13   TIME STEP   25
 
 WELLS WITH REDUCED PUMPING FOR STRESS PERIOD    13 TIME STEP    25
   LAY   ROW   COL         APPL.Q          ACT.Q        GW-HEAD       CELL-BOT
     1     3    50  -0.121000E+01  -0.800669E+00   0.682709E+01   0.000000E+00
     1     5    55  -0.121000E+01  -0.734983E+00   0.635050E+01   0.000000E+00
 
 
 SOLVING FOR HEAD 
                                                   Max.-Head-Change                         Max.-Flux-Residual
  Residual-Control   Outer-Iter.   Inner-Iter.     Column Row Layer    Maximum-Head-Change  Column Row Layer    Maximum-Flux-Residual          L2-NORM 
          0                 1           3            52    7     1      -0.3297317133E+00      52    7    1        -0.6786806532E-02      0.6876518182E-01
          0                 2           2            52    7     1       0.3078405425E-01      52    7    1         0.6730235674E-03      0.6694245031E-02
          0                 3           2            52    7     1      -0.2639710953E-02      52    7    1        -0.6067053462E-04      0.6356251900E-03
          0                 4           2            52    7     1       0.2034927011E-03      52    4    1        -0.6229819840E-05      0.5535447371E-04
          0                 5           1            52    7     1      -0.1387828000E-04      52    4    1         0.5312765480E-06      0.4238390375E-05
          0                 6           1            52    7     1       0.8003547198E-06      52    4    1        -0.3558689021E-07      0.2713798092E-06

    ------------------------------------------------
       NWT REQUIRED            6 OUTER ITERATIONS 
       AND A TOTAL OF         11 INNER ITERATIONS.
    ------------------------------------------------

 NO OUTPUT CONTROL FOR STRESS PERIOD   13   TIME STEP   26
 
 WELLS WITH REDUCED PUMPING FOR STRESS PERIOD    13 TIME STEP    26
   LAY   ROW   COL         APPL.Q          ACT.Q        GW-HEAD       CELL-BOT
     1     3    50  -0.120999E+01  -0.787303E+00   0.674076E+01   0.000000E+00
     1     5    55  -0.120999E+01  -0.722754E+00   0.627429E+01   0.000000E+00
 
 
 SOLVING FOR HEAD 
                                                   Max.-Head-Change                         Max.-Flux-Residual
  Residual-Control   Outer-Iter.   Inner-Iter.     Column Row Layer    Maximum-Head-Change  Column Row Layer    Maximum-Flux-Residual          L2-NORM 
          0                 1           3            52    7     1      -0.3372357823E+00      52    7    1        -0.6355410999E-02      0.6706074546E-01
          0                 2           3            52    7     1       0.3137897958E-01      52    7    1         0.6295080492E-03      0.6527487159E-02
          0                 3           2            52    7     1      -0.2683300180E-02      52    7    1        -0.5676516390E-04      0.6196977258E-03
          0                 4           2            52    7     1       0.2062401353E-03      52    4    1        -0.5926153333E-05      0.5406852421E-04
          0                 5           1            52    7     1      -0.1402145787E-04      52    4    1         0.5097504037E-06      0.4155160771E-05
          0                 6           1            53    1     1       0.8025186563E-06      52    4    1        -0.3439377572E-07      0.2656433361E-06

    ------------------------------------------------
       NWT REQUIRED            6 OUTER ITERATIONS 
       AND A TOTAL OF         12 INNER ITERATIONS.
    ------------------------------------------------

 NO OUTPUT CONTROL FOR STRESS PERIOD   13   TIME STEP   27
 
 WELLS WITH REDUCED PUMPING FOR STRESS PERIOD    13 TIME STEP    27
   LAY   ROW   COL         APPL.Q          ACT.Q        GW-HEAD       CELL-BOT
     1     3    50  -0.121000E+01  -0.773850E+00   0.665439E+01   0.000000E+00
     1     5    55  -0.121000E+01  -0.710287E+00   0.619683E+01   0.000000E+00
 
 
 SOLVING FOR HEAD 
                                                   Max.-Head-Change                         Max.-Flux-Residual
  Residual-Control   Outer-Iter.   Inner-Iter.     Column Row Layer    Maximum-Head-Change  Column Row Layer    Maximum-Flux-Residual          L2-NORM 
          0                 1           3            52    7     1      -0.3427066878E+00      52    7    1        -0.5910877050E-02      0.6538335365E-01
          0                 2           3            52    7     1       0.3178166723E-01      52    7    1         0.5848305602E-03      0.6362059454E-02
          0                 3           2            52    7     1      -0.2709858525E-02      52    7    1        -0.5274566258E-04      0.6036707597E-03
          0                 4           2            52    7     1       0.2076335616E-03      52    4    1        -0.5593611852E-05      0.5274884235E-04
          0                 5           1            52    7     1      -0.1406695510E-04      52    4    1         0.4852149986E-06      0.4067277269E-05
          0                 6           1            53    1     1       0.8001256023E-06      52    4    1        -0.3297257078E-07      0.2591116584E-06

    ------------------------------------------------
       NWT REQUIRED            6 OUTER ITERATIONS 
       AND A TOTAL OF         12 INNER ITERATIONS.
    ------------------------------------------------

 NO OUTPUT CONTROL FOR STRESS PERIOD   13   TIME STEP   28
 
 WELLS WITH REDUCED PUMPING FOR STRESS PERIOD    13 TIME STEP    28
   LAY   ROW   COL         APPL.Q          ACT.Q        GW-HEAD       CELL-BOT
     1     3    50  -0.121000E+01  -0.760314E+00   0.656805E+01   0.000000E+00
     1     5    55  -0.121000E+01  -0.697586E+00   0.611820E+01   0.000000E+00
 
 
 SOLVING FOR HEAD 
                                                   Max.-Head-Change                         Max.-Flux-Residual
  Residual-Control   Outer-Iter.   Inner-Iter.     Column Row Layer    Maximum-Head-Change  Column Row Layer    Maximum-Flux-Residual          L2-NORM 
          0                 1           3            52    7     1      -0.3461018652E+00      52    7    1        -0.5462287188E-02      0.6374378793E-01
          0                 2           3            52    7     1       0.3198034379E-01      52    7    1         0.5398740272E-03      0.6200900047E-02
          0                 3           2            52    7     1      -0.2718323732E-02      52    7    1        -0.4869929496E-04      0.5880930820E-03
          0                 4           2            52    7     1       0.2076031595E-03      52    4    1        -0.5237284007E-05      0.5144667070E-04
          0                 5           1            52    7     1      -0.1401200218E-04      52    4    1         0.4579849873E-06      0.3978073824E-05
          0                 6           1            53    1     1       0.7902709045E-06      52    4    1        -0.3134111992E-07      0.2519314232E-06

    ------------------------------------------------
       NWT REQUIRED            6 OUTER ITERATIONS 
       AND A TOTAL OF         12 INNER ITERATIONS.
    ------------------------------------------------

 NO OUTPUT CONTROL FOR STRESS PERIOD   13   TIME STEP   29
 
 WELLS WITH REDUCED PUMPING FOR STRESS PERIOD    13 TIME STEP    29
   LAY   ROW   COL         APPL.Q          ACT.Q        GW-HEAD       CELL-BOT
     1     3    50  -0.121000E+01  -0.746792E+00   0.648226E+01   0.000000E+00
     1     5    55  -0.121000E+01  -0.684730E+00   0.603886E+01   0.000000E+00
 
 
 SOLVING FOR HEAD 
                                                   Max.-Head-Change                         Max.-Flux-Residual
  Residual-Control   Outer-Iter.   Inner-Iter.     Column Row Layer    Maximum-Head-Change  Column Row Layer    Maximum-Flux-Residual          L2-NORM 
          0                 1           3            52    7     1      -0.3475515154E+00      52    7    1        -0.5016490392E-02      0.6216281125E-01
          0                 2           3            52    7     1       0.3204584326E-01      52    7    1         0.4953466449E-03      0.6043742454E-02
          0                 3           2            52    7     1      -0.2717314379E-02      52    7    1        -0.4468867054E-04      0.5723721704E-03
          0                 4           2            52    7     1       0.2068626077E-03      52    4    1        -0.4777778714E-05      0.5008582530E-04
          0                 5           1            53    1     1      -0.1390155353E-04      52    4    1         0.4236710827E-06      0.3882035643E-05
          0                 6           1            53    1     1       0.7740139542E-06      52    4    1        -0.2932432164E-07      0.2438271675E-06

    ------------------------------------------------
       NWT REQUIRED            6 OUTER ITERATIONS 
       AND A TOTAL OF         12 INNER ITERATIONS.
    ------------------------------------------------

 NO OUTPUT CONTROL FOR STRESS PERIOD   13   TIME STEP   30
 
 WELLS WITH REDUCED PUMPING FOR STRESS PERIOD    13 TIME STEP    30
   LAY   ROW   COL         APPL.Q          ACT.Q        GW-HEAD       CELL-BOT
     1     3    50  -0.121000E+01  -0.733304E+00   0.639711E+01   0.000000E+00
     1     5    55  -0.121000E+01  -0.671742E+00   0.595891E+01   0.000000E+00
 



 STREAM LISTING     PERIOD     13   STEP       30

 LAYER ROW COL. STREAM  RCH.   FLOW INTO    STREAM     FLOW OUT OF   OVRLND.    DIRECT     STREAM      STREAM      STREAM     STREAM  STREAMBED   FLOW TO   CHNG. UNSAT. 
                SEG.NO.  NO.   STRM. RCH.    LOSS       STRM. RCH.   RUNOFF     PRECIP       ET         HEAD        DEPTH      WIDTH  CONDCTNC.   WAT. TAB.

   1    4    1     1     1    1.2680E+00  6.7374E-04   1.2673E+00  0.000E+00  0.000E+00  0.000E+00  1.40683E+02  8.330E-01  2.809E+00  5.054E-04  6.951E-04 -2.141E-05
   1    4    2     1     2    1.2673E+00  6.7353E-04   1.2667E+00  0.000E+00  0.000E+00  0.000E+00  1.40383E+02  8.328E-01  2.809E+00  5.054E-04  6.946E-04 -2.105E-05
   1    4    3     1     3    1.2667E+00  6.7332E-04   1.2660E+00  0.000E+00  0.000E+00  0.000E+00  1.40083E+02  8.325E-01  2.809E+00  5.053E-04  6.938E-04 -2.046E-05
   1    4    4     1     4    1.2660E+00  6.7311E-04   1.2653E+00  0.000E+00  0.000E+00  0.000E+00  1.39782E+02  8.323E-01  2.808E+00  5.052E-04  6.928E-04 -1.967E-05
   1    4    5     1     5    1.2653E+00  6.7290E-04   1.2646E+00  0.000E+00  0.000E+00  0.000E+00  1.39482E+02  8.321E-01  2.808E+00  5.051E-04  6.916E-04 -1.865E-05
   1    4    6     1     6    1.2646E+00  6.7270E-04   1.2640E+00  0.000E+00  0.000E+00  0.000E+00  1.39182E+02  8.319E-01  2.808E+00  5.051E-04  6.901E-04 -1.743E-05
   1    4    7     1     7    1.2640E+00  6.7249E-04   1.2633E+00  0.000E+00  0.000E+00  0.000E+00  1.38882E+02  8.316E-01  2.808E+00  5.050E-04  6.885E-04 -1.599E-05
   1    4    8     1     8    1.2633E+00  6.7228E-04   1.2626E+00  0.000E+00  0.000E+00  0.000E+00  1.38581E+02  8.314E-01  2.807E+00  5.049E-04  6.866E-04 -1.434E-05
   1    4    9     1     9    1.2626E+00  6.7207E-04   1.2619E+00  0.000E+00  0.000E+00  0.000E+00  1.38281E+02  8.312E-01  2.807E+00  5.049E-04  6.846E-04 -1.250E-05
   1    4   10     1    10    1.2619E+00  6.7186E-04   1.2613E+00  0.000E+00  0.000E+00  0.000E+00  1.37981E+02  8.310E-01  2.807E+00  5.048E-04  6.823E-04 -1.045E-05
   1    4   11     1    11    1.2613E+00  6.7166E-04   1.2606E+00  0.000E+00  0.000E+00  0.000E+00  1.37681E+02  8.308E-01  2.806E+00  5.047E-04  6.799E-04 -8.223E-06
   1    4   12     1    12    1.2606E+00  6.7145E-04   1.2599E+00  0.000E+00  0.000E+00  0.000E+00  1.37381E+02  8.305E-01  2.806E+00  5.046E-04  6.773E-04 -5.812E-06
   1    4   13     1    13    1.2599E+00  6.7124E-04   1.2593E+00  0.000E+00  0.000E+00  0.000E+00  1.37080E+02  8.303E-01  2.806E+00  5.046E-04  6.745E-04 -3.230E-06
   1    4   14     1    14    1.2593E+00  6.7103E-04   1.2586E+00  0.000E+00  0.000E+00  0.000E+00  1.36780E+02  8.301E-01  2.806E+00  5.045E-04  6.715E-04 -4.901E-07
   1    4   15     1    15    1.2586E+00  6.7083E-04   1.2579E+00  0.000E+00  0.000E+00  0.000E+00  1.36480E+02  8.299E-01  2.805E+00  5.044E-04  6.684E-04  2.398E-06
   1    4   16     1    16    1.2579E+00  6.7062E-04   1.2572E+00  0.000E+00  0.000E+00  0.000E+00  1.36180E+02  8.297E-01  2.805E+00  5.044E-04  6.652E-04  5.418E-06
   1    4   17     1    17    1.2572E+00  6.7041E-04   1.2566E+00  0.000E+00  0.000E+00  0.000E+00  1.35879E+02  8.294E-01  2.805E+00  5.043E-04  6.619E-04  8.555E-06
   1    4   18     1    18    1.2566E+00  6.7021E-04   1.2559E+00  0.000E+00  0.000E+00  0.000E+00  1.35579E+02  8.292E-01  2.805E+00  5.042E-04  6.584E-04  1.179E-05
   1    4   19     1    19    1.2559E+00  6.7000E-04   1.2552E+00  0.000E+00  0.000E+00  0.000E+00  1.35279E+02  8.290E-01  2.804E+00  5.041E-04  6.549E-04  1.511E-05
   1    4   20     1    20    1.2552E+00  6.6979E-04   1.2546E+00  0.000E+00  0.000E+00  0.000E+00  1.34979E+02  8.288E-01  2.804E+00  5.041E-04  6.513E-04  1.849E-05
   1    4   21     1    21    1.2546E+00  6.6958E-04   1.2539E+00  0.000E+00  0.000E+00  0.000E+00  1.34679E+02  8.286E-01  2.804E+00  5.040E-04  6.477E-04  2.191E-05
   1    4   22     1    22    1.2539E+00  6.6938E-04   1.2532E+00  0.000E+00  0.000E+00  0.000E+00  1.34378E+02  8.283E-01  2.804E+00  5.039E-04  6.440E-04  2.536E-05
   1    4   23     1    23    1.2532E+00  6.6917E-04   1.2526E+00  0.000E+00  0.000E+00  0.000E+00  1.34078E+02  8.281E-01  2.803E+00  5.039E-04  6.404E-04  2.879E-05
   1    4   24     1    24    1.2526E+00  6.6896E-04   1.2519E+00  0.000E+00  0.000E+00  0.000E+00  1.33778E+02  8.279E-01  2.803E+00  5.038E-04  6.368E-04  3.220E-05
   1    4   25     1    25    1.2519E+00  6.6876E-04   1.2512E+00  0.000E+00  0.000E+00  0.000E+00  1.33478E+02  8.277E-01  2.803E+00  5.037E-04  6.332E-04  3.556E-05
   1    4   26     1    26    1.2512E+00  6.6855E-04   1.2506E+00  0.000E+00  0.000E+00  0.000E+00  1.33177E+02  8.274E-01  2.802E+00  5.036E-04  6.297E-04  3.885E-05
   1    4   27     1    27    1.2506E+00  6.6834E-04   1.2499E+00  0.000E+00  0.000E+00  0.000E+00  1.32877E+02  8.272E-01  2.802E+00  5.036E-04  6.360E-04  3.230E-05
   1    4   28     1    28    1.2499E+00  6.6814E-04   1.2492E+00  0.000E+00  0.000E+00  0.000E+00  1.32577E+02  8.270E-01  2.802E+00  5.035E-04  6.489E-04  1.923E-05
   1    4   29     1    29    1.2492E+00  6.6793E-04   1.2485E+00  0.000E+00  0.000E+00  0.000E+00  1.32277E+02  8.268E-01  2.802E+00  5.034E-04  7.136E-04 -4.564E-05
   1    4   30     1    30    1.2485E+00  6.6772E-04   1.2479E+00  0.000E+00  0.000E+00  0.000E+00  1.31977E+02  8.266E-01  2.801E+00  5.033E-04  7.196E-04 -5.192E-05
   1    4   31     1    31    1.2479E+00  6.6752E-04   1.2472E+00  0.000E+00  0.000E+00  0.000E+00  1.31676E+02  8.263E-01  2.801E+00  5.033E-04  7.163E-04 -4.877E-05
   1    4   32     1    32    1.2472E+00  6.6731E-04   1.2465E+00  0.000E+00  0.000E+00  0.000E+00  1.31376E+02  8.261E-01  2.801E+00  5.032E-04  7.130E-04 -4.569E-05
   1    4   33     1    33    1.2465E+00  6.6710E-04   1.2459E+00  0.000E+00  0.000E+00  0.000E+00  1.31076E+02  8.259E-01  2.801E+00  5.031E-04  7.097E-04 -4.261E-05
   1    4   34     1    34    1.2459E+00  6.6690E-04   1.2452E+00  0.000E+00  0.000E+00  0.000E+00  1.30776E+02  8.257E-01  2.800E+00  5.031E-04  7.064E-04 -3.950E-05
   1    4   35     1    35    1.2452E+00  6.6669E-04   1.2445E+00  0.000E+00  0.000E+00  0.000E+00  1.30475E+02  8.255E-01  2.800E+00  5.030E-04  7.052E-04 -3.853E-05
   1    4   36     1    36    1.2445E+00  6.6648E-04   1.2439E+00  0.000E+00  0.000E+00  0.000E+00  1.30175E+02  8.252E-01  2.800E+00  5.029E-04  7.173E-04 -5.082E-05
   1    4   37     1    37    1.2439E+00  6.6628E-04   1.2432E+00  0.000E+00  0.000E+00  0.000E+00  1.29875E+02  8.250E-01  2.800E+00  5.028E-04  7.436E-04 -7.729E-05
   1    4   38     1    38    1.2432E+00  6.6607E-04   1.2425E+00  0.000E+00  0.000E+00  0.000E+00  1.29575E+02  8.248E-01  2.799E+00  5.028E-04  7.776E-04 -1.115E-04
   1    4   39     1    39    1.2425E+00  6.6586E-04   1.2419E+00  0.000E+00  0.000E+00  0.000E+00  1.29275E+02  8.246E-01  2.799E+00  5.027E-04  8.155E-04 -1.496E-04
   1    4   40     1    40    1.2419E+00  6.6566E-04   1.2412E+00  0.000E+00  0.000E+00  0.000E+00  1.28974E+02  8.244E-01  2.799E+00  5.026E-04  8.561E-04 -1.905E-04
   1    4   41     1    41    1.2412E+00  6.6545E-04   1.2405E+00  0.000E+00  0.000E+00  0.000E+00  1.28674E+02  8.241E-01  2.799E+00  5.026E-04  9.353E-04 -2.699E-04
   1    4   42     1    42    1.2405E+00  6.6525E-04   1.2399E+00  0.000E+00  0.000E+00  0.000E+00  1.28374E+02  8.239E-01  2.798E+00  5.025E-04  9.949E-04 -3.297E-04
   1    4   43     1    43    1.2399E+00  6.6504E-04   1.2392E+00  0.000E+00  0.000E+00  0.000E+00  1.28074E+02  8.237E-01  2.798E+00  5.024E-04  1.013E-03 -3.483E-04
   1    4   44     1    44    1.2392E+00  6.6483E-04   1.2386E+00  0.000E+00  0.000E+00  0.000E+00  1.27773E+02  8.235E-01  2.798E+00  5.023E-04  1.004E-03 -3.390E-04
   1    4   45     1    45    1.2386E+00  6.6463E-04   1.2379E+00  0.000E+00  0.000E+00  0.000E+00  1.27473E+02  8.233E-01  2.797E+00  5.023E-04  9.946E-04 -3.300E-04
   1    4   46     1    46    1.2379E+00  6.6442E-04   1.2372E+00  0.000E+00  0.000E+00  0.000E+00  1.27173E+02  8.230E-01  2.797E+00  5.022E-04  9.869E-04 -3.225E-04
   1    4   47     1    47    1.2372E+00  6.6422E-04   1.2366E+00  0.000E+00  0.000E+00  0.000E+00  1.26873E+02  8.228E-01  2.797E+00  5.021E-04  1.099E-03 -4.349E-04
   1    4   48     1    48    1.2366E+00  6.6401E-04   1.2359E+00  0.000E+00  0.000E+00  0.000E+00  1.26573E+02  8.226E-01  2.797E+00  5.021E-04  1.144E-03 -4.800E-04
   1    4   49     1    49    1.2359E+00  6.6380E-04   1.2352E+00  0.000E+00  0.000E+00  0.000E+00  1.26272E+02  8.224E-01  2.796E+00  5.020E-04  1.185E-03 -5.209E-04
   1    4   50     1    50    1.2352E+00  6.6360E-04   1.2346E+00  0.000E+00  0.000E+00  0.000E+00  1.25972E+02  8.222E-01  2.796E+00  5.019E-04  1.281E-03 -6.173E-04
   1    4   51     1    51    1.2346E+00  6.6339E-04   1.2339E+00  0.000E+00  0.000E+00  0.000E+00  1.25672E+02  8.219E-01  2.796E+00  5.018E-04  1.143E-03 -4.797E-04
   1    4   52     1    52    1.2339E+00  6.6319E-04   1.2332E+00  0.000E+00  0.000E+00  0.000E+00  1.25372E+02  8.217E-01  2.796E+00  5.018E-04  1.058E-03 -3.945E-04
   1    4   53     1    53    1.2332E+00  6.6298E-04   1.2326E+00  0.000E+00  0.000E+00  0.000E+00  1.25071E+02  8.215E-01  2.795E+00  5.017E-04  1.064E-03 -4.006E-04
   1    4   54     1    54    1.2326E+00  6.6278E-04   1.2319E+00  0.000E+00  0.000E+00  0.000E+00  1.24771E+02  8.213E-01  2.795E+00  5.016E-04  1.147E-03 -4.845E-04
   1    4   55     1    55    1.2319E+00  6.6257E-04   1.2313E+00  0.000E+00  0.000E+00  0.000E+00  1.24471E+02  8.211E-01  2.795E+00  5.015E-04  1.277E-03 -6.142E-04
   1    4   56     1    56    1.2313E+00  6.6237E-04   1.2306E+00  0.000E+00  0.000E+00  0.000E+00  1.24171E+02  8.208E-01  2.795E+00  5.015E-04  1.178E-03 -5.159E-04
   1    4   57     1    57    1.2306E+00  6.6216E-04   1.2299E+00  0.000E+00  0.000E+00  0.000E+00  1.23871E+02  8.206E-01  2.794E+00  5.014E-04  1.135E-03 -4.727E-04
   1    4   58     1    58    1.2299E+00  6.6195E-04   1.2293E+00  0.000E+00  0.000E+00  0.000E+00  1.23570E+02  8.204E-01  2.794E+00  5.013E-04  1.080E-03 -4.180E-04
   1    4   59     1    59    1.2293E+00  6.6175E-04   1.2286E+00  0.000E+00  0.000E+00  0.000E+00  1.23270E+02  8.202E-01  2.794E+00  5.013E-04  9.638E-04 -3.021E-04
   1    4   60     1    60    1.2286E+00  6.6154E-04   1.2279E+00  0.000E+00  0.000E+00  0.000E+00  1.22970E+02  8.200E-01  2.794E+00  5.012E-04  9.639E-04 -3.024E-04
   1    4   61     1    61    1.2279E+00  6.6134E-04   1.2273E+00  0.000E+00  0.000E+00  0.000E+00  1.22670E+02  8.197E-01  2.793E+00  5.011E-04  9.655E-04 -3.042E-04
   1    4   62     1    62    1.2273E+00  6.6113E-04   1.2266E+00  0.000E+00  0.000E+00  0.000E+00  1.22370E+02  8.195E-01  2.793E+00  5.010E-04  9.665E-04 -3.054E-04
   1    4   63     1    63    1.2266E+00  6.6093E-04   1.2260E+00  0.000E+00  0.000E+00  0.000E+00  1.22069E+02  8.193E-01  2.793E+00  5.010E-04  8.978E-04 -2.369E-04
   1    4   64     1    64    1.2260E+00  6.6072E-04   1.2253E+00  0.000E+00  0.000E+00  0.000E+00  1.21769E+02  8.191E-01  2.792E+00  5.009E-04  8.408E-04 -1.800E-04
   1    4   65     1    65    1.2253E+00  6.6052E-04   1.2246E+00  0.000E+00  0.000E+00  0.000E+00  1.21469E+02  8.189E-01  2.792E+00  5.008E-04  7.879E-04 -1.274E-04
   1    4   66     1    66    1.2246E+00  6.6031E-04   1.2240E+00  0.000E+00  0.000E+00  0.000E+00  1.21169E+02  8.186E-01  2.792E+00  5.008E-04  7.110E-04 -5.066E-05
   1    4   67     1    67    1.2240E+00  6.6011E-04   1.2233E+00  0.000E+00  0.000E+00  0.000E+00  1.20868E+02  8.184E-01  2.792E+00  5.007E-04  6.676E-04 -7.475E-06
   1    4   68     1    68    1.2233E+00  6.5990E-04   1.2227E+00  0.000E+00  0.000E+00  0.000E+00  1.20568E+02  8.182E-01  2.791E+00  5.006E-04  6.412E-04  1.875E-05
   1    4   69     1    69    1.2227E+00  6.5970E-04   1.2220E+00  0.000E+00  0.000E+00  0.000E+00  1.20268E+02  8.180E-01  2.791E+00  5.005E-04  6.335E-04  2.620E-05
   1    4   70     1    70    1.2220E+00  6.5949E-04   1.2213E+00  0.000E+00  0.000E+00  0.000E+00  1.19968E+02  8.178E-01  2.791E+00  5.005E-04  6.343E-04  2.516E-05
   1    4   71     1    71    1.2213E+00  6.5929E-04   1.2207E+00  0.000E+00  0.000E+00  0.000E+00  1.19668E+02  8.175E-01  2.791E+00  5.004E-04  6.352E-04  2.406E-05
   1    4   72     1    72    1.2207E+00  6.5909E-04   1.2200E+00  0.000E+00  0.000E+00  0.000E+00  1.19367E+02  8.173E-01  2.790E+00  5.003E-04  6.363E-04  2.282E-05
   1    4   73     1    73    1.2200E+00  6.5888E-04   1.2194E+00  0.000E+00  0.000E+00  0.000E+00  1.19067E+02  8.171E-01  2.790E+00  5.003E-04  6.375E-04  2.136E-05
   1    4   74     1    74    1.2194E+00  6.5868E-04   1.2187E+00  0.000E+00  0.000E+00  0.000E+00  1.18767E+02  8.169E-01  2.790E+00  5.002E-04  6.012E-04  5.748E-05
   1    4   75     1    75    1.2187E+00  6.5847E-04   1.2180E+00  0.000E+00  0.000E+00  0.000E+00  1.18467E+02  8.167E-01  2.790E+00  5.001E-04  5.735E-04  8.499E-05
   1    4   76     1    76    1.2180E+00  6.5827E-04   1.2174E+00  0.000E+00  0.000E+00  0.000E+00  1.18166E+02  8.164E-01  2.789E+00  5.000E-04  5.754E-04  8.287E-05
   1    4   77     1    77    1.2174E+00  6.5806E-04   1.2167E+00  0.000E+00  0.000E+00  0.000E+00  1.17866E+02  8.162E-01  2.789E+00  5.000E-04  5.776E-04  8.050E-05
   1    4   78     1    78    1.2167E+00  6.5786E-04   1.2161E+00  0.000E+00  0.000E+00  0.000E+00  1.17566E+02  8.160E-01  2.789E+00  4.999E-04  5.800E-04  7.784E-05
   1    4   79     1    79    1.2161E+00  6.5765E-04   1.2154E+00  0.000E+00  0.000E+00  0.000E+00  1.17266E+02  8.158E-01  2.789E+00  4.998E-04  5.838E-04  7.382E-05
   1    4   80     1    80    1.2154E+00  6.5745E-04   1.2148E+00  0.000E+00  0.000E+00  0.000E+00  1.16966E+02  8.156E-01  2.788E+00  4.998E-04  5.876E-04  6.982E-05
   1    4   81     1    81    1.2148E+00  6.5725E-04   1.2141E+00  0.000E+00  0.000E+00  0.000E+00  1.16665E+02  8.153E-01  2.788E+00  4.997E-04  5.918E-04  6.546E-05
   1    4   82     1    82    1.2141E+00  6.5704E-04   1.2134E+00  0.000E+00  0.000E+00  0.000E+00  1.16365E+02  8.151E-01  2.788E+00  4.996E-04  5.870E-04  7.008E-05
   1    4   83     1    83    1.2134E+00  6.5684E-04   1.2128E+00  0.000E+00  0.000E+00  0.000E+00  1.16065E+02  8.149E-01  2.787E+00  4.995E-04  5.888E-04  6.807E-05
   1    4   84     1    84    1.2128E+00  6.5663E-04   1.2121E+00  0.000E+00  0.000E+00  0.000E+00  1.15765E+02  8.147E-01  2.787E+00  4.995E-04  5.930E-04  6.361E-05
   1    4   85     1    85    1.2121E+00  6.5643E-04   1.2115E+00  0.000E+00  0.000E+00  0.000E+00  1.15464E+02  8.145E-01  2.787E+00  4.994E-04  5.975E-04  5.889E-05
   1    4   86     1    86    1.2115E+00  6.5623E-04   1.2108E+00  0.000E+00  0.000E+00  0.000E+00  1.15164E+02  8.142E-01  2.787E+00  4.993E-04  6.023E-04  5.389E-05
   1    4   87     1    87    1.2108E+00  6.5602E-04   1.2102E+00  0.000E+00  0.000E+00  0.000E+00  1.14864E+02  8.140E-01  2.786E+00  4.992E-04  6.074E-04  4.861E-05
   1    4   88     1    88    1.2102E+00  6.5582E-04   1.2095E+00  0.000E+00  0.000E+00  0.000E+00  1.14564E+02  8.138E-01  2.786E+00  4.992E-04  6.128E-04  4.306E-05
   1    4   89     1    89    1.2095E+00  6.5561E-04   1.2088E+00  0.000E+00  0.000E+00  0.000E+00  1.14264E+02  8.136E-01  2.786E+00  4.991E-04  6.190E-04  3.658E-05
   1    4   90     1    90    1.2088E+00  6.5541E-04   1.2082E+00  0.000E+00  0.000E+00  0.000E+00  1.13963E+02  8.134E-01  2.786E+00  4.990E-04  6.277E-04  2.767E-05
   1    4   91     1    91    1.2082E+00  6.5521E-04   1.2075E+00  0.000E+00  0.000E+00  0.000E+00  1.13663E+02  8.131E-01  2.785E+00  4.990E-04  6.466E-04  8.632E-06
   1    4   92     1    92    1.2075E+00  6.5500E-04   1.2069E+00  0.000E+00  0.000E+00  0.000E+00  1.13363E+02  8.129E-01  2.785E+00  4.989E-04  6.614E-04 -6.377E-06
   1    4   93     1    93    1.2069E+00  6.5480E-04   1.2062E+00  0.000E+00  0.000E+00  0.000E+00  1.13063E+02  8.127E-01  2.785E+00  4.988E-04  6.700E-04 -1.518E-05
   1    4   94     1    94    1.2062E+00  6.5460E-04   1.2056E+00  0.000E+00  0.000E+00  0.000E+00  1.12762E+02  8.125E-01  2.785E+00  4.987E-04  6.790E-04 -2.439E-05
   1    4   95     1    95    1.2056E+00  6.5439E-04   1.2049E+00  0.000E+00  0.000E+00  0.000E+00  1.12462E+02  8.123E-01  2.784E+00  4.987E-04  6.884E-04 -3.403E-05
   1    4   96     1    96    1.2049E+00  6.5419E-04   1.2043E+00  0.000E+00  0.000E+00  0.000E+00  1.12162E+02  8.120E-01  2.784E+00  4.986E-04  6.983E-04 -4.412E-05
   1    4   97     1    97    1.2043E+00  6.5398E-04   1.2036E+00  0.000E+00  0.000E+00  0.000E+00  1.11862E+02  8.118E-01  2.784E+00  4.985E-04  7.087E-04 -5.467E-05
   1    4   98     1    98    1.2036E+00  6.5378E-04   1.2030E+00  0.000E+00  0.000E+00  0.000E+00  1.11562E+02  8.116E-01  2.784E+00  4.985E-04  7.194E-04 -6.567E-05
   1    4   99     1    99    1.2030E+00  6.5358E-04   1.2023E+00  0.000E+00  0.000E+00  0.000E+00  1.11261E+02  8.114E-01  2.783E+00  4.984E-04  7.307E-04 -7.708E-05
   1    4  100     1   100    1.2023E+00  6.5337E-04   1.2016E+00  0.000E+00  0.000E+00  0.000E+00  1.10961E+02  8.112E-01  2.783E+00  4.983E-04  7.422E-04 -8.887E-05



1
  VOLUMETRIC BUDGET FOR UNSATURATED ZONE BENEATH STREAMS AT END OF TIME STEP    30 STRESS PERIOD  13
  ------------------------------------------------------------------------------------------------

    CUMULATIVE VOLUMES             L**3    RATES FOR THIS TIME STEP         L**3/T
    ------------------                     ------------------------


          STREAM LOSS =     13206697.0000            STREAM LOSS =        6.6352E-02
    CHANGE IN STORAGE =      1038655.2500      CHANGE IN STORAGE =       -9.5754E-03
       RECHARGE TO GW =     12171968.0000         RECHARGE TO GW =        7.5926E-02

             TOTAL IN =     13206697.0000               TOTAL IN =        7.5927E-02

            TOTAL OUT =     13210623.0000              TOTAL OUT =        7.5926E-02

             IN - OUT =        -3926.0000               IN - OUT =        7.7486E-07

  PERCENT DISCREPANCY =           -0.01      PERCENT DISCREPANCY =             0.00



1
  VOLUMETRIC BUDGET FOR ENTIRE MODEL AT END OF TIME STEP   30, STRESS PERIOD  13
  ------------------------------------------------------------------------------

     CUMULATIVE VOLUMES      L**3       RATES FOR THIS TIME STEP      L**3/T
     ------------------                 ------------------------

           IN:                                      IN:
           ---                                      ---
             STORAGE     =    69117352.0000               STORAGE     =           1.4782
       CONSTANT HEAD     =           0.0000         CONSTANT HEAD     =           0.0000
               WELLS     =           0.0000                 WELLS     =           0.0000
     HEAD DEP BOUNDS     =           0.0000       HEAD DEP BOUNDS     =           0.0000
      STREAM LEAKAGE     =    12172009.0000        STREAM LEAKAGE     =       7.5926E-02

                TOTAL IN =    81289360.0000                  TOTAL IN =           1.5541

          OUT:                                     OUT:
          ----                                     ----
             STORAGE     =     2207784.7500               STORAGE     =           0.0000
       CONSTANT HEAD     =           0.0000         CONSTANT HEAD     =           0.0000
               WELLS     =    65512072.0000                 WELLS     =           1.4050
     HEAD DEP BOUNDS     =    13569532.0000       HEAD DEP BOUNDS     =           0.1490
      STREAM LEAKAGE     =           0.0000        STREAM LEAKAGE     =           0.0000

               TOTAL OUT =    81289392.0000                 TOTAL OUT =           1.5541

                IN - OUT =         -32.0000                  IN - OUT =           0.0000

     PERCENT DISCREPANCY =          -0.00         PERCENT DISCREPANCY =           0.00






         TIME SUMMARY AT END OF TIME STEP   30 IN STRESS PERIOD   13
                    SECONDS     MINUTES      HOURS       DAYS        YEARS
                    -----------------------------------------------------------
   TIME STEP LENGTH 2.49961E+05  4166.0      69.434      2.8931     7.92080E-03
 STRESS PERIOD TIME 2.59200E+06  43200.      720.00      30.000     8.21355E-02
         TOTAL TIME 3.36960E+07 5.61600E+05  9360.0      390.00      1.0678    
1
1
                            STRESS PERIOD NO.   14, LENGTH =   2592000.    
                            -----------------------------------------------

                              NUMBER OF TIME STEPS =    30

                               MULTIPLIER FOR DELT =     1.100

                            INITIAL TIME STEP SIZE =   15757.40    

 REUSING NON-PARAMETER WELLS FROM LAST STRESS PERIOD

      1 WELL 

 REUSING NON-PARAMETER GHB CELLS FROM LAST STRESS PERIOD

      7 GHB CELLS



 CLASSIFICATION & COUNT OF STREAM SEGMENTS BASED ON SOURCE OF INFLOW:

                HEADWATER     DIVERSION     RECEIVES TRIBUTARY FLOW
                ---------     ---------     -----------------------
                     1              0               0



                    INPUT DATA FOR EACH STREAM SEGMENT
 ---------------------------------------------------------------------------------------------

 SEGMENT    SEG.     INFLOW   OVERLAND   STREAM    STREAM   ICALC  OUTFLOW  DIVERSION PRIORITY
    NO.    LENGTH     RATE     RUNOFF      ET       PPT.    METH.  TO SEG.  FROM SEG.    NO.

      1  2.000E+04 3.350E+00 0.000E+00 0.000E+00 0.000E+00    2        0        0        0


         STREAMBED PROPERTIES AND STREAM DIMENSIONS

 SEGMENT     BED HYD. COND.      BED THICKNESS     ELEV.-TOP OF BED     WIDTH OF STREAM     DEPTH OF STREAM    STREAM ROUGHNESS
    No.     UPPER     LOWER     UPPER     LOWER     UPPER     LOWER     UPPER     LOWER     UPPER     LOWER   CHANNEL      BANK

     1  3.500E-07 3.500E-07                                                                                 3.000E-02 4.000E-02

  EIGHT POINT CROSS-SECTION DATA FOR SEGMENTS WITH ICALC = 2
    X VALUES X VALUES START FROM LEFT SIDE LOOKING DOWNSTREAM

     SEGMENT NO.        X1        X2        X3        X4        X5        X6        X7        X8
            1      0.000E+00 2.000E+00 4.000E+00 6.000E+00 8.000E+00 1.000E+01 1.200E+01 1.400E+01

    Z VALUES ARE RELATIVE TO STREAMBED ELEVATION

     SEGMENT NO.          Z1        Z2        Z3        Z4        Z5        Z6        Z7        Z8
            1      6.000E+00 4.500E+00 3.500E+00 0.000E+00 3.000E-01 3.500E+00 4.500E+00 6.000E+00



 
 SOLVING FOR HEAD 
                                                   Max.-Head-Change                         Max.-Flux-Residual
  Residual-Control   Outer-Iter.   Inner-Iter.     Column Row Layer    Maximum-Head-Change  Column Row Layer    Maximum-Flux-Residual          L2-NORM 
          0                 1           2            50    3     1      -0.4011449483E+00      50    3    1        -0.1768490777E+00      0.2473892717E+00
          0                 2           2            50    3     1       0.4041448425E-01      50    3    1         0.1829010983E-01      0.2528673311E-01
          0                 3           2            50    3     1      -0.3588999337E-02      50    3    1        -0.1642312748E-02      0.2276120967E-02
          0                 4           2            50    3     1       0.2846017232E-03      50    3    1         0.1315819349E-03      0.1825637795E-03
          0                 5           1            50    3     1      -0.1981442545E-04      50    3    1        -0.9249876317E-05      0.1284374379E-04
          0                 6           1            50    3     1       0.1189533805E-05      50    3    1         0.5605064600E-06      0.7785943923E-06
          0                 7           1            50    3     1      -0.6010143552E-07      50    3    1        -0.2858024628E-07      0.3970763410E-07

    ------------------------------------------------
       NWT REQUIRED            7 OUTER ITERATIONS 
       AND A TOTAL OF         11 INNER ITERATIONS.
    ------------------------------------------------

 NO OUTPUT CONTROL FOR STRESS PERIOD   14   TIME STEP    1
 
 WELLS WITH REDUCED PUMPING FOR STRESS PERIOD    14 TIME STEP     1
   LAY   ROW   COL         APPL.Q          ACT.Q        GW-HEAD       CELL-BOT
     1     3    50  -0.149979E+01  -0.836709E+00   0.603306E+01   0.000000E+00
     1     5    55  -0.149979E+01  -0.765312E+00   0.562606E+01   0.000000E+00
 
 
 SOLVING FOR HEAD 
                                                   Max.-Head-Change                         Max.-Flux-Residual
  Residual-Control   Outer-Iter.   Inner-Iter.     Column Row Layer    Maximum-Head-Change  Column Row Layer    Maximum-Flux-Residual          L2-NORM 
          0                 1           2            50    3     1      -0.2044705403E+00      50    3    1        -0.8323435535E-01      0.1294202590E+00
          0                 2           2            50    3     1       0.1989175159E-01      50    3    1         0.8382439466E-02      0.1284797588E-01
          0                 3           2            50    3     1      -0.1763151616E-02      50    3    1        -0.7540948215E-03      0.1161438624E-02
          0                 4           2            50    3     1       0.1394300363E-03      50    3    1         0.6040608700E-04      0.9346204513E-04
          0                 5           1            50    3     1      -0.9689640719E-05      50    3    1        -0.4246468950E-05      0.6591556253E-05
          0                 6           1            50    3     1       0.5810083068E-06      50    3    1         0.2573182568E-06      0.4001699069E-06

    ------------------------------------------------
       NWT REQUIRED            6 OUTER ITERATIONS 
       AND A TOTAL OF         10 INNER ITERATIONS.
    ------------------------------------------------

 NO OUTPUT CONTROL FOR STRESS PERIOD   14   TIME STEP    2
 
 WELLS WITH REDUCED PUMPING FOR STRESS PERIOD    14 TIME STEP     2
   LAY   ROW   COL         APPL.Q          ACT.Q        GW-HEAD       CELL-BOT
     1     3    50  -0.149990E+01  -0.799505E+00   0.584685E+01   0.000000E+00
     1     5    55  -0.149990E+01  -0.730911E+00   0.545606E+01   0.000000E+00
 
 
 SOLVING FOR HEAD 
                                                   Max.-Head-Change                         Max.-Flux-Residual
  Residual-Control   Outer-Iter.   Inner-Iter.     Column Row Layer    Maximum-Head-Change  Column Row Layer    Maximum-Flux-Residual          L2-NORM 
          0                 1           2            50    3     1      -0.1065269994E+00      50    3    1        -0.3879296973E-01      0.8331313978E-01
          0                 2           2            50    3     1       0.1014767604E-01      50    3    1         0.3882218095E-02      0.8127319361E-02
          0                 3           2            50    3     1      -0.8901048825E-03      50    3    1        -0.3494105681E-03      0.7389805997E-03
          0                 4           1            50    3     1       0.7000528098E-04      50    3    1         0.2798787730E-04      0.5989060549E-04
          0                 5           1            50    3     1      -0.4853415120E-05      50    3    1        -0.1967497050E-05      0.4246191343E-05
          0                 6           1            50    3     1       0.2907971551E-06      50    3    1         0.1192211775E-06      0.2586086513E-06

    ------------------------------------------------
       NWT REQUIRED            6 OUTER ITERATIONS 
       AND A TOTAL OF          9 INNER ITERATIONS.
    ------------------------------------------------

 NO OUTPUT CONTROL FOR STRESS PERIOD   14   TIME STEP    3
 
 WELLS WITH REDUCED PUMPING FOR STRESS PERIOD    14 TIME STEP     3
   LAY   ROW   COL         APPL.Q          ACT.Q        GW-HEAD       CELL-BOT
     1     3    50  -0.150012E+01  -0.780118E+00   0.574964E+01   0.000000E+00
     1     5    55  -0.150012E+01  -0.713080E+00   0.536751E+01   0.000000E+00
 
 
 SOLVING FOR HEAD 
                                                   Max.-Head-Change                         Max.-Flux-Residual
  Residual-Control   Outer-Iter.   Inner-Iter.     Column Row Layer    Maximum-Head-Change  Column Row Layer    Maximum-Flux-Residual          L2-NORM 
          0                 1           2            50    3     1      -0.5855387326E-01      50    3    1        -0.1824944100E-01      0.6907578221E-01
          0                 2           2            50    3     1       0.5449735017E-02      50    3    1         0.1826524753E-02      0.6694633193E-02
          0                 3           2            50    2     1      -0.4744896724E-03      50    3    1        -0.1643917808E-03      0.6120801798E-03
          0                 4           1            50    2     1       0.3759776996E-04      50    3    1         0.1316779144E-04      0.4993186394E-04
          0                 5           1            50    2     1      -0.2616828344E-05      50    3    1        -0.9256633612E-06      0.3558234721E-05
          0                 6           1            50    2     1       0.1570676556E-06      50    3    1         0.5609037057E-07      0.2174442271E-06

    ------------------------------------------------
       NWT REQUIRED            6 OUTER ITERATIONS 
       AND A TOTAL OF          9 INNER ITERATIONS.
    ------------------------------------------------

 NO OUTPUT CONTROL FOR STRESS PERIOD   14   TIME STEP    4
 
 WELLS WITH REDUCED PUMPING FOR STRESS PERIOD    14 TIME STEP     4
   LAY   ROW   COL         APPL.Q          ACT.Q        GW-HEAD       CELL-BOT
     1     3    50  -0.149992E+01  -0.769264E+00   0.569610E+01   0.000000E+00
     1     5    55  -0.149992E+01  -0.703140E+00   0.531888E+01   0.000000E+00
 
 
 SOLVING FOR HEAD 
                                                   Max.-Head-Change                         Max.-Flux-Residual
  Residual-Control   Outer-Iter.   Inner-Iter.     Column Row Layer    Maximum-Head-Change  Column Row Layer    Maximum-Flux-Residual          L2-NORM 
          0                 1           2            50    2     1      -0.5028378285E-01      50    3    1        -0.9283825177E-02      0.6520748350E-01
          0                 2           2            50    2     1       0.4928623859E-02      50    3    1         0.9314030084E-03      0.6322943275E-02
          0                 3           2            50    2     1      -0.4383487138E-03      50    3    1        -0.8381338880E-04      0.5802654402E-03
          0                 4           1            50    2     1       0.3474094190E-04      50    3    1         0.6713568933E-05      0.4752469983E-04
          0                 5           1            50    2     1      -0.2418267374E-05      50    3    1        -0.4719409365E-06      0.3397734741E-05
          0                 6           1            50    2     1       0.1451553730E-06      50    3    1         0.2859682380E-07      0.2081468416E-06

    ------------------------------------------------
       NWT REQUIRED            6 OUTER ITERATIONS 
       AND A TOTAL OF          9 INNER ITERATIONS.
    ------------------------------------------------

 NO OUTPUT CONTROL FOR STRESS PERIOD   14   TIME STEP    5
 
 WELLS WITH REDUCED PUMPING FOR STRESS PERIOD    14 TIME STEP     5
   LAY   ROW   COL         APPL.Q          ACT.Q        GW-HEAD       CELL-BOT
     1     3    50  -0.150010E+01  -0.762667E+00   0.566279E+01   0.000000E+00
     1     5    55  -0.150010E+01  -0.697120E+00   0.528870E+01   0.000000E+00
 
 
 SOLVING FOR HEAD 
                                                   Max.-Head-Change                         Max.-Flux-Residual
  Residual-Control   Outer-Iter.   Inner-Iter.     Column Row Layer    Maximum-Head-Change  Column Row Layer    Maximum-Flux-Residual          L2-NORM 
          0                 1           2            50    2     1      -0.4650056665E-01      50    2    1        -0.7140808445E-02      0.6384057343E-01
          0                 2           2            50    2     1       0.4545846210E-02      50    2    1         0.7116039037E-03      0.6202377797E-02
          0                 3           2            50    2     1      -0.4042573974E-03      50    2    1        -0.6407061049E-04      0.5705185413E-03
          0                 4           1            50    2     1       0.3205300341E-04      50    2    1         0.5131843869E-05      0.4685458624E-04
          0                 5           1            50    2     1      -0.2232180873E-05      50    2    1        -0.3607649964E-06      0.3358828240E-05
          0                 6           1            50    2     1       0.1340258453E-06      50    2    1         0.2186092668E-07      0.2062263483E-06

    ------------------------------------------------
       NWT REQUIRED            6 OUTER ITERATIONS 
       AND A TOTAL OF          9 INNER ITERATIONS.
    ------------------------------------------------

 NO OUTPUT CONTROL FOR STRESS PERIOD   14   TIME STEP    6
 
 WELLS WITH REDUCED PUMPING FOR STRESS PERIOD    14 TIME STEP     6
   LAY   ROW   COL         APPL.Q          ACT.Q        GW-HEAD       CELL-BOT
     1     3    50  -0.149991E+01  -0.757894E+00   0.563951E+01   0.000000E+00
     1     5    55  -0.149991E+01  -0.692770E+00   0.526762E+01   0.000000E+00
 
 
 SOLVING FOR HEAD 
                                                   Max.-Head-Change                         Max.-Flux-Residual
  Residual-Control   Outer-Iter.   Inner-Iter.     Column Row Layer    Maximum-Head-Change  Column Row Layer    Maximum-Flux-Residual          L2-NORM 
          0                 1           2            50    2     1      -0.4360370916E-01      50    2    1        -0.6004779084E-02      0.6318235196E-01
          0                 2           2            50    2     1       0.4256950737E-02      50    2    1         0.5984756067E-03      0.6146943748E-02
          0                 3           2            50    2     1      -0.3782835864E-03      50    2    1        -0.5388415384E-04      0.5663664522E-03
          0                 4           1            50    2     1       0.3000040194E-04      50    2    1         0.4315947813E-05      0.4663732289E-04
          0                 5           1            50    2     1      -0.2089659025E-05      50    2    1        -0.3034080435E-06      0.3352367041E-05
          0                 6           1            50    2     1       0.1254766474E-06      50    2    1         0.1838532315E-07      0.2063121535E-06

    ------------------------------------------------
       NWT REQUIRED            6 OUTER ITERATIONS 
       AND A TOTAL OF          9 INNER ITERATIONS.
    ------------------------------------------------

 NO OUTPUT CONTROL FOR STRESS PERIOD   14   TIME STEP    7
 
 WELLS WITH REDUCED PUMPING FOR STRESS PERIOD    14 TIME STEP     7
   LAY   ROW   COL         APPL.Q          ACT.Q        GW-HEAD       CELL-BOT
     1     3    50  -0.150004E+01  -0.754155E+00   0.562057E+01   0.000000E+00
     1     5    55  -0.150004E+01  -0.689346E+00   0.525039E+01   0.000000E+00
 
 
 SOLVING FOR HEAD 
                                                   Max.-Head-Change                         Max.-Flux-Residual
  Residual-Control   Outer-Iter.   Inner-Iter.     Column Row Layer    Maximum-Head-Change  Column Row Layer    Maximum-Flux-Residual          L2-NORM 
          0                 1           2            50    1     1      -0.4464002041E-01      50    2    1        -0.5119456430E-02      0.6272223564E-01
          0                 2           2            50    1     1       0.4405864806E-02      50    2    1         0.5104162921E-03      0.6105688658E-02
          0                 3           2            50    1     1      -0.3925340609E-03      50    2    1        -0.4595401517E-04      0.5633823284E-03
          0                 4           1            50    1     1       0.3114721590E-04      50    2    1         0.3680781868E-05      0.4651983660E-04
          0                 5           1            50    1     1      -0.2169474987E-05      50    2    1        -0.2587562534E-06      0.3353629391E-05
          0                 6           1            50    1     1       0.1302599531E-06      50    2    1         0.1567960189E-07      0.2069160764E-06

    ------------------------------------------------
       NWT REQUIRED            6 OUTER ITERATIONS 
       AND A TOTAL OF          9 INNER ITERATIONS.
    ------------------------------------------------

 NO OUTPUT CONTROL FOR STRESS PERIOD   14   TIME STEP    8
 
 WELLS WITH REDUCED PUMPING FOR STRESS PERIOD    14 TIME STEP     8
   LAY   ROW   COL         APPL.Q          ACT.Q        GW-HEAD       CELL-BOT
     1     3    50  -0.150006E+01  -0.750795E+00   0.560380E+01   0.000000E+00
     1     5    55  -0.150006E+01  -0.686248E+00   0.523501E+01   0.000000E+00
 
 
 SOLVING FOR HEAD 
                                                   Max.-Head-Change                         Max.-Flux-Residual
  Residual-Control   Outer-Iter.   Inner-Iter.     Column Row Layer    Maximum-Head-Change  Column Row Layer    Maximum-Flux-Residual          L2-NORM 
          0                 1           2            51    2     1      -0.4738586979E-01      50    1    1        -0.4759633997E-02      0.6233649234E-01
          0                 2           2            51    1     1       0.4617687854E-02      50    1    1         0.4754378020E-03      0.6069973220E-02
          0                 3           2            51    1     1      -0.4110522771E-03      50    1    1        -0.4279497303E-04      0.5609004223E-03
          0                 4           1            51    1     1       0.3261240779E-04      50    1    1         0.3427832826E-05      0.4644614045E-04
          0                 5           1            51    1     1      -0.2271612481E-05      50    1    1        -0.2409370496E-06      0.3358484790E-05
          0                 6           1            51    1     1       0.1363980531E-06      50    1    1         0.1459773946E-07      0.2077819085E-06

    ------------------------------------------------
       NWT REQUIRED            6 OUTER ITERATIONS 
       AND A TOTAL OF          9 INNER ITERATIONS.
    ------------------------------------------------

 NO OUTPUT CONTROL FOR STRESS PERIOD   14   TIME STEP    9
 
 WELLS WITH REDUCED PUMPING FOR STRESS PERIOD    14 TIME STEP     9
   LAY   ROW   COL         APPL.Q          ACT.Q        GW-HEAD       CELL-BOT
     1     3    50  -0.149994E+01  -0.747582E+00   0.558812E+01   0.000000E+00
     1     5    55  -0.149994E+01  -0.683270E+00   0.522055E+01   0.000000E+00
 
 
 SOLVING FOR HEAD 
                                                   Max.-Head-Change                         Max.-Flux-Residual
  Residual-Control   Outer-Iter.   Inner-Iter.     Column Row Layer    Maximum-Head-Change  Column Row Layer    Maximum-Flux-Residual          L2-NORM 
          0                 1           2            51    1     1      -0.5109015563E-01      51    2    1        -0.4603877001E-02      0.6198748927E-01
          0                 2           2            51    1     1       0.5025281290E-02      51    2    1         0.4600269456E-03      0.6037316951E-02
          0                 3           2            51    1     1      -0.4471285202E-03      51    2    1        -0.4141011686E-04      0.5587203773E-03
          0                 4           1            51    1     1       0.3546788638E-04      51    2    1         0.3316879545E-05      0.4640668311E-04
          0                 5           1            51    1     1      -0.2470336624E-05      51    2    1        -0.2330916202E-06      0.3366563141E-05
          0                 6           1            51    1     1       0.1483262755E-06      72    4    1        -0.1413445716E-07      0.2088897600E-06

    ------------------------------------------------
       NWT REQUIRED            6 OUTER ITERATIONS 
       AND A TOTAL OF          9 INNER ITERATIONS.
    ------------------------------------------------

 NO OUTPUT CONTROL FOR STRESS PERIOD   14   TIME STEP   10
 
 WELLS WITH REDUCED PUMPING FOR STRESS PERIOD    14 TIME STEP    10
   LAY   ROW   COL         APPL.Q          ACT.Q        GW-HEAD       CELL-BOT
     1     3    50  -0.150003E+01  -0.744480E+00   0.557243E+01   0.000000E+00
     1     5    55  -0.150003E+01  -0.680377E+00   0.520601E+01   0.000000E+00
 
 
 SOLVING FOR HEAD 
                                                   Max.-Head-Change                         Max.-Flux-Residual
  Residual-Control   Outer-Iter.   Inner-Iter.     Column Row Layer    Maximum-Head-Change  Column Row Layer    Maximum-Flux-Residual          L2-NORM 
          0                 1           2            52    1     1      -0.5536757582E-01      51    1    1        -0.4503430267E-02      0.6164555985E-01
          0                 2           2            52    1     1       0.5431945318E-02      51    1    1         0.4501192627E-03      0.6004244110E-02
          0                 3           2            51    1     1      -0.4828228684E-03      51    1    1        -0.4051416776E-04      0.5564310054E-03
          0                 4           1            51    1     1       0.3828963150E-04      51    1    1         0.3245154917E-05      0.4635255320E-04
          0                 5           1            51    1     1      -0.2666582660E-05      51    1    1        -0.2281314407E-06      0.3373702861E-05
          0                 6           1            51    1     1       0.1601022009E-06      72    4    1        -0.1475739531E-07      0.2099827292E-06

    ------------------------------------------------
       NWT REQUIRED            6 OUTER ITERATIONS 
       AND A TOTAL OF          9 INNER ITERATIONS.
    ------------------------------------------------

 NO OUTPUT CONTROL FOR STRESS PERIOD   14   TIME STEP   11
 
 WELLS WITH REDUCED PUMPING FOR STRESS PERIOD    14 TIME STEP    11
   LAY   ROW   COL         APPL.Q          ACT.Q        GW-HEAD       CELL-BOT
     1     3    50  -0.150005E+01  -0.741319E+00   0.555666E+01   0.000000E+00
     1     5    55  -0.150005E+01  -0.677417E+00   0.519131E+01   0.000000E+00
 
 
 SOLVING FOR HEAD 
                                                   Max.-Head-Change                         Max.-Flux-Residual
  Residual-Control   Outer-Iter.   Inner-Iter.     Column Row Layer    Maximum-Head-Change  Column Row Layer    Maximum-Flux-Residual          L2-NORM 
          0                 1           2            52    1     1      -0.6048978179E-01      52    2    1        -0.4444809686E-02      0.6130186063E-01
          0                 2           2            52    1     1       0.5925265931E-02      52    2    1         0.4443332147E-03      0.5970857390E-02
          0                 3           2            52    1     1      -0.5261602390E-03      52    2    1        -0.3999602196E-04      0.5541145112E-03
          0                 4           1            52    1     1       0.4170450025E-04      52    2    1         0.3203625883E-05      0.4629875938E-04
          0                 5           1            52    1     1      -0.2902819962E-05      52    2    1        -0.2252121577E-06      0.3381215609E-05
          0                 6           1            52    1     1       0.1742139961E-06      72    4    1        -0.1537186556E-07      0.2111338682E-06

    ------------------------------------------------
       NWT REQUIRED            6 OUTER ITERATIONS 
       AND A TOTAL OF          9 INNER ITERATIONS.
    ------------------------------------------------

 NO OUTPUT CONTROL FOR STRESS PERIOD   14   TIME STEP   12
 
 WELLS WITH REDUCED PUMPING FOR STRESS PERIOD    14 TIME STEP    12
   LAY   ROW   COL         APPL.Q          ACT.Q        GW-HEAD       CELL-BOT
     1     3    50  -0.149994E+01  -0.738063E+00   0.554072E+01   0.000000E+00
     1     5    55  -0.149994E+01  -0.674355E+00   0.517638E+01   0.000000E+00
 
 
 SOLVING FOR HEAD 
                                                   Max.-Head-Change                         Max.-Flux-Residual
  Residual-Control   Outer-Iter.   Inner-Iter.     Column Row Layer    Maximum-Head-Change  Column Row Layer    Maximum-Flux-Residual          L2-NORM 
          0                 1           2            52    1     1      -0.6590906084E-01      52    1    1        -0.4408322355E-02      0.6095526151E-01
          0                 2           2            52    1     1       0.6444988844E-02      52    1    1         0.4407089666E-03      0.5937028332E-02
          0                 3           2            52    1     1      -0.5717533956E-03      52    1    1        -0.3966719348E-04      0.5516268098E-03
          0                 4           1            52    1     1       0.4529595217E-04      52    1    1         0.3177309146E-05      0.4621974516E-04
          0                 5           1            52    1     1      -0.3151533398E-05      62    4    1         0.2285904941E-06      0.3386562009E-05
          0                 6           1            52    1     1       0.1890922534E-06      71    4    1        -0.1593500976E-07      0.2121726824E-06

    ------------------------------------------------
       NWT REQUIRED            6 OUTER ITERATIONS 
       AND A TOTAL OF          9 INNER ITERATIONS.
    ------------------------------------------------

 NO OUTPUT CONTROL FOR STRESS PERIOD   14   TIME STEP   13
 
 WELLS WITH REDUCED PUMPING FOR STRESS PERIOD    14 TIME STEP    13
   LAY   ROW   COL         APPL.Q          ACT.Q        GW-HEAD       CELL-BOT
     1     3    50  -0.149995E+01  -0.734734E+00   0.552412E+01   0.000000E+00
     1     5    55  -0.149995E+01  -0.671210E+00   0.516076E+01   0.000000E+00
 
 
 SOLVING FOR HEAD 
                                                   Max.-Head-Change                         Max.-Flux-Residual
  Residual-Control   Outer-Iter.   Inner-Iter.     Column Row Layer    Maximum-Head-Change  Column Row Layer    Maximum-Flux-Residual          L2-NORM 
          0                 1           2            52    1     1      -0.7160753691E-01      52    1    1        -0.4367310335E-02      0.6060096089E-01
          0                 2           2            52    1     1       0.6988905916E-02      52    1    1         0.4365465495E-03      0.5901838984E-02
          0                 3           2            52    1     1      -0.6193063614E-03      52    1    1        -0.3929364802E-04      0.5490163019E-03
          0                 4           1            52    1     1       0.4903299006E-04      52    1    1         0.3147377505E-05      0.4613863026E-04
          0                 5           1            52    1     1      -0.3409625040E-05      64    4    1         0.2358251869E-06      0.3392361557E-05
          0                 6           1            52    1     1       0.2045024597E-06      71    4    1        -0.1651917181E-07      0.2132759621E-06

    ------------------------------------------------
       NWT REQUIRED            6 OUTER ITERATIONS 
       AND A TOTAL OF          9 INNER ITERATIONS.
    ------------------------------------------------

 NO OUTPUT CONTROL FOR STRESS PERIOD   14   TIME STEP   14
 
 WELLS WITH REDUCED PUMPING FOR STRESS PERIOD    14 TIME STEP    14
   LAY   ROW   COL         APPL.Q          ACT.Q        GW-HEAD       CELL-BOT
     1     3    50  -0.150003E+01  -0.731267E+00   0.550667E+01   0.000000E+00
     1     5    55  -0.150003E+01  -0.667929E+00   0.514432E+01   0.000000E+00
 
 
 SOLVING FOR HEAD 
                                                   Max.-Head-Change                         Max.-Flux-Residual
  Residual-Control   Outer-Iter.   Inner-Iter.     Column Row Layer    Maximum-Head-Change  Column Row Layer    Maximum-Flux-Residual          L2-NORM 
          0                 1           2            52    1     1      -0.7756437930E-01      52    1    1        -0.4314318928E-02      0.6023164422E-01
          0                 2           2            52    1     1       0.7554625242E-02      52    1    1         0.4311758588E-03      0.5865240688E-02
          0                 3           2            52    1     1      -0.6685723131E-03      52    1    1        -0.3881152126E-04      0.5462507343E-03
          0                 4           1            52    1     1       0.5289347446E-04      52    1    1         0.3108746712E-05      0.4604406538E-04
          0                 5           1            52    1     1      -0.3675230155E-05      64    4    1         0.2436049602E-06      0.3397152305E-05
          0                 6           1            52    1     1       0.2203176749E-06      70    4    1        -0.1710167297E-07      0.2143303969E-06

    ------------------------------------------------
       NWT REQUIRED            6 OUTER ITERATIONS 
       AND A TOTAL OF          9 INNER ITERATIONS.
    ------------------------------------------------

 NO OUTPUT CONTROL FOR STRESS PERIOD   14   TIME STEP   15
 
 WELLS WITH REDUCED PUMPING FOR STRESS PERIOD    14 TIME STEP    15
   LAY   ROW   COL         APPL.Q          ACT.Q        GW-HEAD       CELL-BOT
     1     3    50  -0.150003E+01  -0.727630E+00   0.548856E+01   0.000000E+00
     1     5    55  -0.150003E+01  -0.664470E+00   0.512716E+01   0.000000E+00
 
 
 SOLVING FOR HEAD 
                                                   Max.-Head-Change                         Max.-Flux-Residual
  Residual-Control   Outer-Iter.   Inner-Iter.     Column Row Layer    Maximum-Head-Change  Column Row Layer    Maximum-Flux-Residual          L2-NORM 
          0                 1           2            52    1     1      -0.8375514370E-01      52    1    1        -0.4249197140E-02      0.5984797245E-01
          0                 2           2            52    1     1       0.8139190508E-02      52    1    1         0.4245824175E-03      0.5827216852E-02
          0                 3           2            52    1     1      -0.7192513119E-03      52    1    1        -0.3821950459E-04      0.5433124101E-03
          0                 4           1            52    1     1       0.5685063450E-04      52    1    1         0.3061311887E-05      0.4593133928E-04
          0                 5           1            52    1     1      -0.3946052104E-05      64    4    1         0.2509221719E-06      0.3400222249E-05
          0                 6           1            52    1     1       0.2363792618E-06      70    4    1        -0.1766945879E-07      0.2152730907E-06

    ------------------------------------------------
       NWT REQUIRED            6 OUTER ITERATIONS 
       AND A TOTAL OF          9 INNER ITERATIONS.
    ------------------------------------------------

 NO OUTPUT CONTROL FOR STRESS PERIOD   14   TIME STEP   16
 
 WELLS WITH REDUCED PUMPING FOR STRESS PERIOD    14 TIME STEP    16
   LAY   ROW   COL         APPL.Q          ACT.Q        GW-HEAD       CELL-BOT
     1     3    50  -0.150003E+01  -0.723829E+00   0.546963E+01   0.000000E+00
     1     5    55  -0.150003E+01  -0.660829E+00   0.510909E+01   0.000000E+00
 
 
 SOLVING FOR HEAD 
                                                   Max.-Head-Change                         Max.-Flux-Residual
  Residual-Control   Outer-Iter.   Inner-Iter.     Column Row Layer    Maximum-Head-Change  Column Row Layer    Maximum-Flux-Residual          L2-NORM 
          0                 1           2            52    1     1      -0.9015161342E-01      52    1    1        -0.4172095590E-02      0.5944473028E-01
          0                 2           2            52    1     1       0.8739491919E-02      52    1    1         0.4167820636E-03      0.5787535586E-02
          0                 3           2            52    1     1      -0.7710311961E-03      52    1    1        -0.3751900705E-04      0.5401515345E-03
          0                 4           1            52    1     1       0.6087646670E-04      52    1    1         0.3005185870E-05      0.4578892508E-04
          0                 5           1            52    1     1      -0.4219570799E-05      64    4    1         0.2578848726E-06      0.3400097141E-05
          0                 6           1            52    1     1       0.2525071286E-06      70    4    1        -0.1822187734E-07      0.2159826256E-06

    ------------------------------------------------
       NWT REQUIRED            6 OUTER ITERATIONS 
       AND A TOTAL OF          9 INNER ITERATIONS.
    ------------------------------------------------

 NO OUTPUT CONTROL FOR STRESS PERIOD   14   TIME STEP   17
 
 WELLS WITH REDUCED PUMPING FOR STRESS PERIOD    14 TIME STEP    17
   LAY   ROW   COL         APPL.Q          ACT.Q        GW-HEAD       CELL-BOT
     1     3    50  -0.149998E+01  -0.719835E+00   0.544985E+01   0.000000E+00
     1     5    55  -0.149998E+01  -0.656983E+00   0.509010E+01   0.000000E+00
 
 
 SOLVING FOR HEAD 
                                                   Max.-Head-Change                         Max.-Flux-Residual
  Residual-Control   Outer-Iter.   Inner-Iter.     Column Row Layer    Maximum-Head-Change  Column Row Layer    Maximum-Flux-Residual          L2-NORM 
          0                 1           2            52    1     1      -0.9672112111E-01      52    1    1        -0.4083391887E-02      0.5902276701E-01
          0                 2           2            52    1     1       0.9351995890E-02      52    1    1         0.4078134455E-03      0.5745860823E-02
          0                 3           2            52    1     1      -0.8235636491E-03      52    1    1        -0.3671348418E-04      0.5367033214E-03
          0                 4           1            52    1     1       0.6493981784E-04      52    1    1         0.2940645354E-05      0.4561284758E-04
          0                 5           1            52    1     1      -0.4492870637E-05      64    4    1         0.2644790378E-06      0.3396440600E-05
          0                 6           1            53    1     1       0.2687949169E-06      64    4    1        -0.1878778910E-07      0.2164286966E-06

    ------------------------------------------------
       NWT REQUIRED            6 OUTER ITERATIONS 
       AND A TOTAL OF          9 INNER ITERATIONS.
    ------------------------------------------------

 NO OUTPUT CONTROL FOR STRESS PERIOD   14   TIME STEP   18
 
 WELLS WITH REDUCED PUMPING FOR STRESS PERIOD    14 TIME STEP    18
   LAY   ROW   COL         APPL.Q          ACT.Q        GW-HEAD       CELL-BOT
     1     3    50  -0.149997E+01  -0.715653E+00   0.542903E+01   0.000000E+00
     1     5    55  -0.149997E+01  -0.652942E+00   0.507004E+01   0.000000E+00
 
 
 SOLVING FOR HEAD 
                                                   Max.-Head-Change                         Max.-Flux-Residual
  Residual-Control   Outer-Iter.   Inner-Iter.     Column Row Layer    Maximum-Head-Change  Column Row Layer    Maximum-Flux-Residual          L2-NORM 
          0                 1           2            53    1     1      -0.1035299029E+00      52    1    1        -0.3983638200E-02      0.5858481979E-01
          0                 2           2            53    1     1       0.9979584529E-02      52    1    1         0.3977326181E-03      0.5701986463E-02
          0                 3           2            53    1     1      -0.8768123781E-03      52    1    1        -0.3580794998E-04      0.5330425469E-03
          0                 4           1            53    1     1       0.6903916151E-04      61    4    1        -0.2997062589E-05      0.4542400949E-04
          0                 5           1            53    1     1      -0.4779295168E-05      64    4    1         0.2706874564E-06      0.3391497185E-05
          0                 6           1            53    1     1       0.2858822306E-06      64    4    1        -0.1935722516E-07      0.2167712769E-06

    ------------------------------------------------
       NWT REQUIRED            6 OUTER ITERATIONS 
       AND A TOTAL OF          9 INNER ITERATIONS.
    ------------------------------------------------

 NO OUTPUT CONTROL FOR STRESS PERIOD   14   TIME STEP   19
 
 WELLS WITH REDUCED PUMPING FOR STRESS PERIOD    14 TIME STEP    19
   LAY   ROW   COL         APPL.Q          ACT.Q        GW-HEAD       CELL-BOT
     1     3    50  -0.149997E+01  -0.711255E+00   0.540714E+01   0.000000E+00
     1     5    55  -0.149997E+01  -0.648677E+00   0.504885E+01   0.000000E+00
 
 
 SOLVING FOR HEAD 
                                                   Max.-Head-Change                         Max.-Flux-Residual
  Residual-Control   Outer-Iter.   Inner-Iter.     Column Row Layer    Maximum-Head-Change  Column Row Layer    Maximum-Flux-Residual          L2-NORM 
          0                 1           2            53    1     1      -0.1107006061E+00      53    1    1        -0.3877515364E-02      0.5812682139E-01
          0                 2           2            53    1     1       0.1064035666E-01      53    1    1         0.3871895178E-03      0.5656641707E-02
          0                 3           2            53    1     1      -0.9328298396E-03      53    1    1        -0.3485940032E-04      0.5291989006E-03
          0                 4           1            53    1     1       0.7332605683E-04      61    4    1        -0.3007665045E-05      0.4521527882E-04
          0                 5           1            53    1     1      -0.5065199741E-05      63    4    1         0.2711912543E-06      0.3383840760E-05
          0                 6           1            53    1     1       0.3025150282E-06      70    4    1        -0.1976837716E-07      0.2168799949E-06

    ------------------------------------------------
       NWT REQUIRED            6 OUTER ITERATIONS 
       AND A TOTAL OF          9 INNER ITERATIONS.
    ------------------------------------------------

 NO OUTPUT CONTROL FOR STRESS PERIOD   14   TIME STEP   20
 
 WELLS WITH REDUCED PUMPING FOR STRESS PERIOD    14 TIME STEP    20
   LAY   ROW   COL         APPL.Q          ACT.Q        GW-HEAD       CELL-BOT
     1     3    50  -0.150002E+01  -0.706642E+00   0.538402E+01   0.000000E+00
     1     5    55  -0.150002E+01  -0.644183E+00   0.502638E+01   0.000000E+00
 
 
 SOLVING FOR HEAD 
                                                   Max.-Head-Change                         Max.-Flux-Residual
  Residual-Control   Outer-Iter.   Inner-Iter.     Column Row Layer    Maximum-Head-Change  Column Row Layer    Maximum-Flux-Residual          L2-NORM 
          0                 1           3            53    1     1      -0.1179208348E+00      53    1    1        -0.3770141765E-02      0.5765187753E-01
          0                 2           2            53    1     1       0.1130067082E-01      53    1    1         0.3763464651E-03      0.5608570595E-02
          0                 3           2            53    1     1      -0.9883904495E-03      53    1    1        -0.3388542023E-04      0.5249686738E-03
          0                 4           1            53    1     1       0.7754446418E-04      61    4    1        -0.3057760946E-05      0.4496442163E-04
          0                 5           1            53    1     1      -0.5341902493E-05      62    4    1         0.2757117068E-06      0.3371276777E-05
          0                 6           1            53    1     1       0.3183846495E-06      70    4    1        -0.2021107726E-07      0.2165903044E-06

    ------------------------------------------------
       NWT REQUIRED            6 OUTER ITERATIONS 
       AND A TOTAL OF         10 INNER ITERATIONS.
    ------------------------------------------------

 NO OUTPUT CONTROL FOR STRESS PERIOD   14   TIME STEP   21
 
 WELLS WITH REDUCED PUMPING FOR STRESS PERIOD    14 TIME STEP    21
   LAY   ROW   COL         APPL.Q          ACT.Q        GW-HEAD       CELL-BOT
     1     3    50  -0.150000E+01  -0.701775E+00   0.535980E+01   0.000000E+00
     1     5    55  -0.150000E+01  -0.639424E+00   0.500272E+01   0.000000E+00
 
 
 SOLVING FOR HEAD 
                                                   Max.-Head-Change                         Max.-Flux-Residual
  Residual-Control   Outer-Iter.   Inner-Iter.     Column Row Layer    Maximum-Head-Change  Column Row Layer    Maximum-Flux-Residual          L2-NORM 
          0                 1           3            53    1     1      -0.1251252727E+00      53    1    1        -0.3651928939E-02      0.5715468074E-01
          0                 2           2            53    1     1       0.1195408565E-01      53    1    1         0.3644153333E-03      0.5559551832E-02
          0                 3           2            53    1     1      -0.1042914807E-02      53    1    1        -0.3281355391E-04      0.5204568103E-03
          0                 4           1            53    1     1       0.8164569985E-04      63    4    1        -0.3044994010E-05      0.4465827222E-04
          0                 5           1            53    1     1      -0.5604805644E-05      62    4    1         0.2810379680E-06      0.3350029133E-05
          0                 6           1            53    1     1       0.3331486766E-06      68    4    1        -0.2060128779E-07      0.2155202428E-06

    ------------------------------------------------
       NWT REQUIRED            6 OUTER ITERATIONS 
       AND A TOTAL OF         10 INNER ITERATIONS.
    ------------------------------------------------

 NO OUTPUT CONTROL FOR STRESS PERIOD   14   TIME STEP   22
 
 WELLS WITH REDUCED PUMPING FOR STRESS PERIOD    14 TIME STEP    22
   LAY   ROW   COL         APPL.Q          ACT.Q        GW-HEAD       CELL-BOT
     1     3    50  -0.149999E+01  -0.696667E+00   0.533435E+01   0.000000E+00
     1     5    55  -0.149999E+01  -0.634408E+00   0.497774E+01   0.000000E+00
 
 
 SOLVING FOR HEAD 
                                                   Max.-Head-Change                         Max.-Flux-Residual
  Residual-Control   Outer-Iter.   Inner-Iter.     Column Row Layer    Maximum-Head-Change  Column Row Layer    Maximum-Flux-Residual          L2-NORM 
          0                 1           3            53    1     1      -0.1322443795E+00      53    1    1        -0.3523747835E-02      0.5662924593E-01
          0                 2           2            53    1     1       0.1259406038E-01      53    1    1         0.3514853698E-03      0.5508077576E-02
          0                 3           2            53    1     1      -0.1095822813E-02      53    1    1        -0.3165178839E-04      0.5160802254E-03
          0                 4           1            53    1     1       0.8558124219E-04      63    4    1        -0.3073756943E-05      0.4440074473E-04
          0                 5           1            53    1     1      -0.5849337217E-05      62    4    1         0.2852447016E-06      0.3333550321E-05
          0                 6           1            53    1     1       0.3465015932E-06      68    4    1        -0.2100531304E-07      0.2147793568E-06

    ------------------------------------------------
       NWT REQUIRED            6 OUTER ITERATIONS 
       AND A TOTAL OF         10 INNER ITERATIONS.
    ------------------------------------------------

 NO OUTPUT CONTROL FOR STRESS PERIOD   14   TIME STEP   23
 
 WELLS WITH REDUCED PUMPING FOR STRESS PERIOD    14 TIME STEP    23
   LAY   ROW   COL         APPL.Q          ACT.Q        GW-HEAD       CELL-BOT
     1     3    50  -0.149998E+01  -0.691309E+00   0.530763E+01   0.000000E+00
     1     5    55  -0.149998E+01  -0.629122E+00   0.495139E+01   0.000000E+00
 
 
 SOLVING FOR HEAD 
                                                   Max.-Head-Change                         Max.-Flux-Residual
  Residual-Control   Outer-Iter.   Inner-Iter.     Column Row Layer    Maximum-Head-Change  Column Row Layer    Maximum-Flux-Residual          L2-NORM 
          0                 1           3            53    1     1      -0.1392061907E+00      53    1    1        -0.3386632323E-02      0.5588551462E-01
          0                 2           2            53    1     1       0.1321392452E-01      53    1    1         0.3376624551E-03      0.5461517133E-02
          0                 3           2            53    1     1      -0.1146537505E-02      53    1    1        -0.3040960429E-04      0.5143433148E-03
          0                 4           1            53    1     1       0.8930713673E-04      63    4    1        -0.3096856804E-05      0.4447083429E-04
          0                 5           1            53    1     1      -0.6074760779E-05      62    4    1         0.2886725774E-06      0.3342495025E-05
          0                 6           1            53    1     1       0.3585905063E-06      68    4    1        -0.2135415045E-07      0.2155151702E-06

    ------------------------------------------------
       NWT REQUIRED            6 OUTER ITERATIONS 
       AND A TOTAL OF         10 INNER ITERATIONS.
    ------------------------------------------------

 NO OUTPUT CONTROL FOR STRESS PERIOD   14   TIME STEP   24
 
 WELLS WITH REDUCED PUMPING FOR STRESS PERIOD    14 TIME STEP    24
   LAY   ROW   COL         APPL.Q          ACT.Q        GW-HEAD       CELL-BOT
     1     3    50  -0.149999E+01  -0.685695E+00   0.527957E+01   0.000000E+00
     1     5    55  -0.149999E+01  -0.623561E+00   0.492359E+01   0.000000E+00
 
 
 SOLVING FOR HEAD 
                                                   Max.-Head-Change                         Max.-Flux-Residual
  Residual-Control   Outer-Iter.   Inner-Iter.     Column Row Layer    Maximum-Head-Change  Column Row Layer    Maximum-Flux-Residual          L2-NORM 
          0                 1           3            53    1     1      -0.1459381297E+00      53    1    1        -0.3241773593E-02      0.5495620670E-01
          0                 2           2            53    1     1       0.1380718879E-01      53    1    1         0.3230683525E-03      0.5365849032E-02
          0                 3           2            53    1     1      -0.1194506183E-02      53    1    1        -0.2909790940E-04      0.5059195024E-03
          0                 4           1            53    1     1       0.9277428564E-04      63    4    1        -0.3113981865E-05      0.4388420238E-04
          0                 5           1            53    1     1      -0.6271821060E-05      62    4    1         0.2914436124E-06      0.3297744730E-05
          0                 6           1            53    1     1       0.3685052335E-06      68    4    1        -0.2168020963E-07      0.2127420455E-06

    ------------------------------------------------
       NWT REQUIRED            6 OUTER ITERATIONS 
       AND A TOTAL OF         10 INNER ITERATIONS.
    ------------------------------------------------

 NO OUTPUT CONTROL FOR STRESS PERIOD   14   TIME STEP   25
 
 WELLS WITH REDUCED PUMPING FOR STRESS PERIOD    14 TIME STEP    25
   LAY   ROW   COL         APPL.Q          ACT.Q        GW-HEAD       CELL-BOT
     1     3    50  -0.150002E+01  -0.679818E+00   0.525016E+01   0.000000E+00
     1     5    55  -0.150002E+01  -0.617712E+00   0.489430E+01   0.000000E+00
 
 
 SOLVING FOR HEAD 
                                                   Max.-Head-Change                         Max.-Flux-Residual
  Residual-Control   Outer-Iter.   Inner-Iter.     Column Row Layer    Maximum-Head-Change  Column Row Layer    Maximum-Flux-Residual          L2-NORM 
          0                 1           3            64    1     1      -0.1569832850E+00      53    1    1        -0.3090490928E-02      0.5411836698E-01
          0                 2           2            53    1     1       0.1437628142E-01      53    1    1         0.3078489944E-03      0.5276520363E-02
          0                 3           2            53    1     1      -0.1239973529E-02      53    1    1        -0.2772965673E-04      0.4975133823E-03
          0                 4           1            53    1     1       0.9599023419E-04      62    4    1        -0.3089342519E-05      0.4323899406E-04
          0                 5           1            53    1     1      -0.6436981792E-05      62    4    1         0.2941574131E-06      0.3241648387E-05
          0                 6           1            53    1     1       0.3758343774E-06      68    4    1        -0.2200819260E-07      0.2089727884E-06

    ------------------------------------------------
       NWT REQUIRED            6 OUTER ITERATIONS 
       AND A TOTAL OF         10 INNER ITERATIONS.
    ------------------------------------------------

 NO OUTPUT CONTROL FOR STRESS PERIOD   14   TIME STEP   26
 
 WELLS WITH REDUCED PUMPING FOR STRESS PERIOD    14 TIME STEP    26
   LAY   ROW   COL         APPL.Q          ACT.Q        GW-HEAD       CELL-BOT
     1     3    50  -0.150001E+01  -0.673670E+00   0.521944E+01   0.000000E+00
     1     5    55  -0.150001E+01  -0.611565E+00   0.486353E+01   0.000000E+00
 
 
 SOLVING FOR HEAD 
                                                   Max.-Head-Change                         Max.-Flux-Residual
  Residual-Control   Outer-Iter.   Inner-Iter.     Column Row Layer    Maximum-Head-Change  Column Row Layer    Maximum-Flux-Residual          L2-NORM 
          0                 1           3            64    1     1      -0.1713253850E+00      64    1    1        -0.3031699765E-02      0.5333301654E-01
          0                 2           2            64    1     1       0.1557305384E-01      64    1    1         0.3030692572E-03      0.5197533130E-02
          0                 3           2            53    1     1      -0.1284788898E-02      64    2    1        -0.2728285857E-04      0.4904732974E-03
          0                 4           1            53    1     1       0.9910171015E-04      70    4    1        -0.3316443815E-05      0.4274368728E-04
          0                 5           1            53    1     1      -0.6581058469E-05      70    4    1         0.3170416445E-06      0.3195212849E-05
          0                 6           1            53    1     1       0.3814474472E-06      70    4    1        -0.2348346406E-07      0.2057815883E-06

    ------------------------------------------------
       NWT REQUIRED            6 OUTER ITERATIONS 
       AND A TOTAL OF         10 INNER ITERATIONS.
    ------------------------------------------------

 NO OUTPUT CONTROL FOR STRESS PERIOD   14   TIME STEP   27
 
 WELLS WITH REDUCED PUMPING FOR STRESS PERIOD    14 TIME STEP    27
   LAY   ROW   COL         APPL.Q          ACT.Q        GW-HEAD       CELL-BOT
     1     3    50  -0.150000E+01  -0.667236E+00   0.518727E+01   0.000000E+00
     1     5    55  -0.150000E+01  -0.605101E+00   0.483114E+01   0.000000E+00
 
 
 SOLVING FOR HEAD 
                                                   Max.-Head-Change                         Max.-Flux-Residual
  Residual-Control   Outer-Iter.   Inner-Iter.     Column Row Layer    Maximum-Head-Change  Column Row Layer    Maximum-Flux-Residual          L2-NORM 
          0                 1           3            64    1     1      -0.1865875576E+00      64    1    1        -0.3008486788E-02      0.5254805134E-01
          0                 2           2            64    1     1       0.1691707392E-01      64    1    1         0.3007206804E-03      0.5120220329E-02
          0                 3           2            64    1     1      -0.1381785610E-02      69    4    1         0.2710255121E-04      0.4836800534E-03
          0                 4           1            53    1     1       0.1019335393E-03      69    4    1        -0.3472138348E-05      0.4224690986E-04
          0                 5           1            53    1     1      -0.6689438840E-05      68    4    1         0.3185364257E-06      0.3140151436E-05
          0                 6           1            53    1     1       0.3844074067E-06      68    4    1        -0.2345250572E-07      0.2016747732E-06

    ------------------------------------------------
       NWT REQUIRED            6 OUTER ITERATIONS 
       AND A TOTAL OF         10 INNER ITERATIONS.
    ------------------------------------------------

 NO OUTPUT CONTROL FOR STRESS PERIOD   14   TIME STEP   28
 
 WELLS WITH REDUCED PUMPING FOR STRESS PERIOD    14 TIME STEP    28
   LAY   ROW   COL         APPL.Q          ACT.Q        GW-HEAD       CELL-BOT
     1     3    50  -0.150000E+01  -0.660522E+00   0.515365E+01   0.000000E+00
     1     5    55  -0.150000E+01  -0.598326E+00   0.479712E+01   0.000000E+00
 
 
 SOLVING FOR HEAD 
                                                   Max.-Head-Change                         Max.-Flux-Residual
  Residual-Control   Outer-Iter.   Inner-Iter.     Column Row Layer    Maximum-Head-Change  Column Row Layer    Maximum-Flux-Residual          L2-NORM 
          0                 1           3            64    1     1      -0.2020670316E+00      64    1    1        -0.2979258289E-02      0.5174526502E-01
          0                 2           3            64    1     1       0.1824234303E-01      64    1    1         0.2977333365E-03      0.5042339564E-02
          0                 3           2            63    1     1      -0.1486447476E-02      67    4    1         0.2778950008E-04      0.4768966744E-03
          0                 4           2            63    1     1       0.1079811477E-03      67    4    1        -0.3564929882E-05      0.4177283549E-04
          0                 5           1            53    1     1      -0.7112571535E-05      67    4    1         0.3338100658E-06      0.3246768392E-05
          0                 6           1            53    1     1       0.4024321002E-06      66    4    1        -0.2449832692E-07      0.2064876247E-06

    ------------------------------------------------
       NWT REQUIRED            6 OUTER ITERATIONS 
       AND A TOTAL OF         12 INNER ITERATIONS.
    ------------------------------------------------

 NO OUTPUT CONTROL FOR STRESS PERIOD   14   TIME STEP   29
 
 WELLS WITH REDUCED PUMPING FOR STRESS PERIOD    14 TIME STEP    29
   LAY   ROW   COL         APPL.Q          ACT.Q        GW-HEAD       CELL-BOT
     1     3    50  -0.149999E+01  -0.653544E+00   0.511870E+01   0.000000E+00
     1     5    55  -0.149999E+01  -0.591252E+00   0.476156E+01   0.000000E+00
 
 
 SOLVING FOR HEAD 
                                                   Max.-Head-Change                         Max.-Flux-Residual
  Residual-Control   Outer-Iter.   Inner-Iter.     Column Row Layer    Maximum-Head-Change  Column Row Layer    Maximum-Flux-Residual          L2-NORM 
          0                 1           3            64    1     1      -0.2166642023E+00      64    1    1        -0.2934164246E-02      0.5092951938E-01
          0                 2           3            63    1     1       0.1948373875E-01      64    1    1         0.2930975137E-03      0.4962232473E-02
          0                 3           2            62    1     1      -0.1578404754E-02      64    4    1         0.2723963915E-04      0.4697643464E-03
          0                 4           2            62    1     1       0.1144149345E-03      64    4    1        -0.3507782809E-05      0.4125623006E-04
          0                 5           1            62    1     1      -0.7292936402E-05      65    4    1         0.3291754798E-06      0.3217258118E-05
          0                 6           1            53    1     1       0.4042605263E-06      64    4    1        -0.2423602119E-07      0.2031368415E-06

    ------------------------------------------------
       NWT REQUIRED            6 OUTER ITERATIONS 
       AND A TOTAL OF         12 INNER ITERATIONS.
    ------------------------------------------------

 NO OUTPUT CONTROL FOR STRESS PERIOD   14   TIME STEP   30
 
 WELLS WITH REDUCED PUMPING FOR STRESS PERIOD    14 TIME STEP    30
   LAY   ROW   COL         APPL.Q          ACT.Q        GW-HEAD       CELL-BOT
     1     3    50  -0.149999E+01  -0.646299E+00   0.508234E+01   0.000000E+00
     1     5    55  -0.149999E+01  -0.583876E+00   0.472438E+01   0.000000E+00
 



 STREAM LISTING     PERIOD     14   STEP       30

 LAYER ROW COL. STREAM  RCH.   FLOW INTO    STREAM     FLOW OUT OF   OVRLND.    DIRECT     STREAM      STREAM      STREAM     STREAM  STREAMBED   FLOW TO   CHNG. UNSAT. 
                SEG.NO.  NO.   STRM. RCH.    LOSS       STRM. RCH.   RUNOFF     PRECIP       ET         HEAD        DEPTH      WIDTH  CONDCTNC.   WAT. TAB.

   1    4    1     1     1    3.3500E+00  1.2735E-03   3.3487E+00  0.000E+00  0.000E+00  0.000E+00  1.41221E+02  1.370E+00  3.452E+00  6.809E-04  1.289E-03 -1.540E-05
   1    4    2     1     2    3.3487E+00  1.2732E-03   3.3475E+00  0.000E+00  0.000E+00  0.000E+00  1.40920E+02  1.370E+00  3.452E+00  6.808E-04  1.288E-03 -1.503E-05
   1    4    3     1     3    3.3475E+00  1.2728E-03   3.3462E+00  0.000E+00  0.000E+00  0.000E+00  1.40620E+02  1.370E+00  3.452E+00  6.807E-04  1.287E-03 -1.446E-05
   1    4    4     1     4    3.3462E+00  1.2725E-03   3.3449E+00  0.000E+00  0.000E+00  0.000E+00  1.40320E+02  1.370E+00  3.451E+00  6.806E-04  1.286E-03 -1.367E-05
   1    4    5     1     5    3.3449E+00  1.2721E-03   3.3436E+00  0.000E+00  0.000E+00  0.000E+00  1.40019E+02  1.369E+00  3.451E+00  6.805E-04  1.285E-03 -1.269E-05
   1    4    6     1     6    3.3436E+00  1.2718E-03   3.3424E+00  0.000E+00  0.000E+00  0.000E+00  1.39719E+02  1.369E+00  3.451E+00  6.804E-04  1.283E-03 -1.150E-05
   1    4    7     1     7    3.3424E+00  1.2714E-03   3.3411E+00  0.000E+00  0.000E+00  0.000E+00  1.39419E+02  1.369E+00  3.450E+00  6.803E-04  1.282E-03 -1.012E-05
   1    4    8     1     8    3.3411E+00  1.2711E-03   3.3398E+00  0.000E+00  0.000E+00  0.000E+00  1.39119E+02  1.369E+00  3.450E+00  6.802E-04  1.280E-03 -8.556E-06
   1    4    9     1     9    3.3398E+00  1.2707E-03   3.3386E+00  0.000E+00  0.000E+00  0.000E+00  1.38818E+02  1.368E+00  3.450E+00  6.801E-04  1.278E-03 -6.812E-06
   1    4   10     1    10    3.3386E+00  1.2704E-03   3.3373E+00  0.000E+00  0.000E+00  0.000E+00  1.38518E+02  1.368E+00  3.449E+00  6.801E-04  1.275E-03 -4.898E-06
   1    4   11     1    11    3.3373E+00  1.2700E-03   3.3360E+00  0.000E+00  0.000E+00  0.000E+00  1.38218E+02  1.368E+00  3.449E+00  6.800E-04  1.273E-03 -2.820E-06
   1    4   12     1    12    3.3360E+00  1.2697E-03   3.3347E+00  0.000E+00  0.000E+00  0.000E+00  1.37918E+02  1.368E+00  3.449E+00  6.799E-04  1.270E-03 -5.860E-07
   1    4   13     1    13    3.3347E+00  1.2693E-03   3.3335E+00  0.000E+00  0.000E+00  0.000E+00  1.37617E+02  1.367E+00  3.448E+00  6.798E-04  1.268E-03  1.790E-06
   1    4   14     1    14    3.3335E+00  1.2690E-03   3.3322E+00  0.000E+00  0.000E+00  0.000E+00  1.37317E+02  1.367E+00  3.448E+00  6.797E-04  1.265E-03  4.299E-06
   1    4   15     1    15    3.3322E+00  1.2686E-03   3.3309E+00  0.000E+00  0.000E+00  0.000E+00  1.37017E+02  1.367E+00  3.448E+00  6.796E-04  1.262E-03  6.929E-06
   1    4   16     1    16    3.3309E+00  1.2683E-03   3.3297E+00  0.000E+00  0.000E+00  0.000E+00  1.36716E+02  1.366E+00  3.447E+00  6.795E-04  1.259E-03  9.667E-06
   1    4   17     1    17    3.3297E+00  1.2679E-03   3.3284E+00  0.000E+00  0.000E+00  0.000E+00  1.36416E+02  1.366E+00  3.447E+00  6.794E-04  1.255E-03  1.250E-05
   1    4   18     1    18    3.3284E+00  1.2676E-03   3.3271E+00  0.000E+00  0.000E+00  0.000E+00  1.36116E+02  1.366E+00  3.447E+00  6.794E-04  1.252E-03  1.542E-05
   1    4   19     1    19    3.3271E+00  1.2673E-03   3.3259E+00  0.000E+00  0.000E+00  0.000E+00  1.35816E+02  1.366E+00  3.446E+00  6.793E-04  1.249E-03  1.840E-05
   1    4   20     1    20    3.3259E+00  1.2669E-03   3.3246E+00  0.000E+00  0.000E+00  0.000E+00  1.35515E+02  1.365E+00  3.446E+00  6.792E-04  1.245E-03  2.144E-05
   1    4   21     1    21    3.3246E+00  1.2666E-03   3.3233E+00  0.000E+00  0.000E+00  0.000E+00  1.35215E+02  1.365E+00  3.446E+00  6.791E-04  1.242E-03  2.452E-05
   1    4   22     1    22    3.3233E+00  1.2662E-03   3.3221E+00  0.000E+00  0.000E+00  0.000E+00  1.34915E+02  1.365E+00  3.445E+00  6.790E-04  1.239E-03  2.763E-05
   1    4   23     1    23    3.3221E+00  1.2659E-03   3.3208E+00  0.000E+00  0.000E+00  0.000E+00  1.34615E+02  1.365E+00  3.445E+00  6.789E-04  1.235E-03  3.074E-05
   1    4   24     1    24    3.3208E+00  1.2655E-03   3.3195E+00  0.000E+00  0.000E+00  0.000E+00  1.34314E+02  1.364E+00  3.445E+00  6.788E-04  1.232E-03  3.386E-05
   1    4   25     1    25    3.3195E+00  1.2652E-03   3.3183E+00  0.000E+00  0.000E+00  0.000E+00  1.34014E+02  1.364E+00  3.444E+00  6.787E-04  1.228E-03  3.698E-05
   1    4   26     1    26    3.3183E+00  1.2648E-03   3.3170E+00  0.000E+00  0.000E+00  0.000E+00  1.33714E+02  1.364E+00  3.444E+00  6.786E-04  1.225E-03  4.008E-05
   1    4   27     1    27    3.3170E+00  1.2645E-03   3.3157E+00  0.000E+00  0.000E+00  0.000E+00  1.33413E+02  1.363E+00  3.444E+00  6.786E-04  1.221E-03  4.315E-05
   1    4   28     1    28    3.3157E+00  1.2641E-03   3.3145E+00  0.000E+00  0.000E+00  0.000E+00  1.33113E+02  1.363E+00  3.443E+00  6.785E-04  1.218E-03  4.620E-05
   1    4   29     1    29    3.3145E+00  1.2638E-03   3.3132E+00  0.000E+00  0.000E+00  0.000E+00  1.32813E+02  1.363E+00  3.443E+00  6.784E-04  1.215E-03  4.922E-05
   1    4   30     1    30    3.3132E+00  1.2634E-03   3.3119E+00  0.000E+00  0.000E+00  0.000E+00  1.32513E+02  1.363E+00  3.443E+00  6.783E-04  1.211E-03  5.221E-05
   1    4   31     1    31    3.3119E+00  1.2631E-03   3.3107E+00  0.000E+00  0.000E+00  0.000E+00  1.32212E+02  1.362E+00  3.442E+00  6.782E-04  1.208E-03  5.517E-05
   1    4   32     1    32    3.3107E+00  1.2627E-03   3.3094E+00  0.000E+00  0.000E+00  0.000E+00  1.31912E+02  1.362E+00  3.442E+00  6.781E-04  1.205E-03  5.770E-05
   1    4   33     1    33    3.3094E+00  1.2624E-03   3.3082E+00  0.000E+00  0.000E+00  0.000E+00  1.31612E+02  1.362E+00  3.442E+00  6.780E-04  1.227E-03  3.568E-05
   1    4   34     1    34    3.3082E+00  1.2620E-03   3.3069E+00  0.000E+00  0.000E+00  0.000E+00  1.31312E+02  1.362E+00  3.442E+00  6.779E-04  1.223E-03  3.873E-05
   1    4   35     1    35    3.3069E+00  1.2617E-03   3.3056E+00  0.000E+00  0.000E+00  0.000E+00  1.31011E+02  1.361E+00  3.441E+00  6.779E-04  1.248E-03  1.339E-05
   1    4   36     1    36    3.3056E+00  1.2613E-03   3.3044E+00  0.000E+00  0.000E+00  0.000E+00  1.30711E+02  1.361E+00  3.441E+00  6.778E-04  1.252E-03  9.303E-06
   1    4   37     1    37    3.3044E+00  1.2610E-03   3.3031E+00  0.000E+00  0.000E+00  0.000E+00  1.30411E+02  1.361E+00  3.441E+00  6.777E-04  1.271E-03 -9.517E-06
   1    4   38     1    38    3.3031E+00  1.2607E-03   3.3019E+00  0.000E+00  0.000E+00  0.000E+00  1.30111E+02  1.360E+00  3.440E+00  6.776E-04  1.287E-03 -2.613E-05
   1    4   39     1    39    3.3019E+00  1.2603E-03   3.3006E+00  0.000E+00  0.000E+00  0.000E+00  1.29810E+02  1.360E+00  3.440E+00  6.775E-04  1.285E-03 -2.424E-05
   1    4   40     1    40    3.3006E+00  1.2600E-03   3.2993E+00  0.000E+00  0.000E+00  0.000E+00  1.29510E+02  1.360E+00  3.440E+00  6.774E-04  1.240E-03  1.963E-05
   1    4   41     1    41    3.2993E+00  1.2596E-03   3.2981E+00  0.000E+00  0.000E+00  0.000E+00  1.29210E+02  1.360E+00  3.439E+00  6.773E-04  9.907E-04  2.689E-04
   1    4   42     1    42    3.2981E+00  1.2593E-03   3.2968E+00  0.000E+00  0.000E+00  0.000E+00  1.28909E+02  1.359E+00  3.439E+00  6.772E-04  7.186E-04  5.406E-04
   1    4   43     1    43    3.2968E+00  1.2589E-03   3.2956E+00  0.000E+00  0.000E+00  0.000E+00  1.28609E+02  1.359E+00  3.439E+00  6.771E-04  6.913E-04  5.676E-04
   1    4   44     1    44    3.2956E+00  1.2586E-03   3.2943E+00  0.000E+00  0.000E+00  0.000E+00  1.28309E+02  1.359E+00  3.438E+00  6.771E-04  7.265E-04  5.320E-04
   1    4   45     1    45    3.2943E+00  1.2582E-03   3.2930E+00  0.000E+00  0.000E+00  0.000E+00  1.28009E+02  1.359E+00  3.438E+00  6.770E-04  7.284E-04  5.298E-04
   1    4   46     1    46    3.2930E+00  1.2579E-03   3.2918E+00  0.000E+00  0.000E+00  0.000E+00  1.27708E+02  1.358E+00  3.438E+00  6.769E-04  7.841E-04  4.738E-04
   1    4   47     1    47    3.2918E+00  1.2575E-03   3.2905E+00  0.000E+00  0.000E+00  0.000E+00  1.27408E+02  1.358E+00  3.437E+00  6.768E-04  7.923E-04  4.653E-04
   1    4   48     1    48    3.2905E+00  1.2572E-03   3.2893E+00  0.000E+00  0.000E+00  0.000E+00  1.27108E+02  1.358E+00  3.437E+00  6.767E-04  8.055E-04  4.517E-04
   1    4   49     1    49    3.2893E+00  1.2568E-03   3.2880E+00  0.000E+00  0.000E+00  0.000E+00  1.26808E+02  1.358E+00  3.437E+00  6.766E-04  8.611E-04  3.957E-04
   1    4   50     1    50    3.2880E+00  1.2565E-03   3.2867E+00  0.000E+00  0.000E+00  0.000E+00  1.26507E+02  1.357E+00  3.436E+00  6.765E-04  1.075E-03  1.812E-04
   1    4   51     1    51    3.2867E+00  1.2562E-03   3.2855E+00  0.000E+00  0.000E+00  0.000E+00  1.26207E+02  1.357E+00  3.436E+00  6.764E-04  9.866E-04  2.696E-04
   1    4   52     1    52    3.2855E+00  1.2558E-03   3.2842E+00  0.000E+00  0.000E+00  0.000E+00  1.25907E+02  1.357E+00  3.436E+00  6.764E-04  9.190E-04  3.368E-04
   1    4   53     1    53    3.2842E+00  1.2555E-03   3.2830E+00  0.000E+00  0.000E+00  0.000E+00  1.25606E+02  1.356E+00  3.435E+00  6.763E-04  9.126E-04  3.428E-04
   1    4   54     1    54    3.2830E+00  1.2551E-03   3.2817E+00  0.000E+00  0.000E+00  0.000E+00  1.25306E+02  1.356E+00  3.435E+00  6.762E-04  9.674E-04  2.877E-04
   1    4   55     1    55    3.2817E+00  1.2548E-03   3.2805E+00  0.000E+00  0.000E+00  0.000E+00  1.25006E+02  1.356E+00  3.435E+00  6.761E-04  1.055E-03  1.993E-04
   1    4   56     1    56    3.2805E+00  1.2544E-03   3.2792E+00  0.000E+00  0.000E+00  0.000E+00  1.24706E+02  1.356E+00  3.434E+00  6.760E-04  8.533E-04  4.011E-04
   1    4   57     1    57    3.2792E+00  1.2541E-03   3.2780E+00  0.000E+00  0.000E+00  0.000E+00  1.24405E+02  1.355E+00  3.434E+00  6.759E-04  7.841E-04  4.700E-04
   1    4   58     1    58    3.2780E+00  1.2537E-03   3.2767E+00  0.000E+00  0.000E+00  0.000E+00  1.24105E+02  1.355E+00  3.434E+00  6.758E-04  7.659E-04  4.879E-04
   1    4   59     1    59    3.2767E+00  1.2534E-03   3.2755E+00  0.000E+00  0.000E+00  0.000E+00  1.23805E+02  1.355E+00  3.433E+00  6.757E-04  7.530E-04  5.004E-04
   1    4   60     1    60    3.2755E+00  1.2531E-03   3.2742E+00  0.000E+00  0.000E+00  0.000E+00  1.23505E+02  1.355E+00  3.433E+00  6.757E-04  6.948E-04  5.583E-04
   1    4   61     1    61    3.2742E+00  1.2527E-03   3.2730E+00  0.000E+00  0.000E+00  0.000E+00  1.23204E+02  1.354E+00  3.433E+00  6.756E-04  6.887E-04  5.640E-04
   1    4   62     1    62    3.2730E+00  1.2524E-03   3.2717E+00  0.000E+00  0.000E+00  0.000E+00  1.22904E+02  1.354E+00  3.433E+00  6.755E-04  6.848E-04  5.676E-04
   1    4   63     1    63    3.2717E+00  1.2520E-03   3.2704E+00  0.000E+00  0.000E+00  0.000E+00  1.22604E+02  1.354E+00  3.432E+00  6.754E-04  8.155E-04  4.365E-04
   1    4   64     1    64    3.2704E+00  1.2517E-03   3.2692E+00  0.000E+00  0.000E+00  0.000E+00  1.22303E+02  1.353E+00  3.432E+00  6.753E-04  1.101E-03  1.508E-04
   1    4   65     1    65    3.2692E+00  1.2513E-03   3.2679E+00  0.000E+00  0.000E+00  0.000E+00  1.22003E+02  1.353E+00  3.432E+00  6.752E-04  1.226E-03  2.495E-05
   1    4   66     1    66    3.2679E+00  1.2510E-03   3.2667E+00  0.000E+00  0.000E+00  0.000E+00  1.21703E+02  1.353E+00  3.431E+00  6.751E-04  1.224E-03  2.649E-05
   1    4   67     1    67    3.2667E+00  1.2506E-03   3.2654E+00  0.000E+00  0.000E+00  0.000E+00  1.21403E+02  1.353E+00  3.431E+00  6.750E-04  1.213E-03  3.757E-05
   1    4   68     1    68    3.2654E+00  1.2503E-03   3.2642E+00  0.000E+00  0.000E+00  0.000E+00  1.21102E+02  1.352E+00  3.431E+00  6.750E-04  1.185E-03  6.537E-05
   1    4   69     1    69    3.2642E+00  1.2500E-03   3.2629E+00  0.000E+00  0.000E+00  0.000E+00  1.20802E+02  1.352E+00  3.430E+00  6.749E-04  1.185E-03  6.470E-05
   1    4   70     1    70    3.2629E+00  1.2496E-03   3.2617E+00  0.000E+00  0.000E+00  0.000E+00  1.20502E+02  1.352E+00  3.430E+00  6.748E-04  1.154E-03  9.522E-05
   1    4   71     1    71    3.2617E+00  1.2493E-03   3.2604E+00  0.000E+00  0.000E+00  0.000E+00  1.20202E+02  1.352E+00  3.430E+00  6.747E-04  1.155E-03  9.384E-05
   1    4   72     1    72    3.2604E+00  1.2489E-03   3.2592E+00  0.000E+00  0.000E+00  0.000E+00  1.19901E+02  1.351E+00  3.429E+00  6.746E-04  1.156E-03  9.275E-05
   1    4   73     1    73    3.2592E+00  1.2486E-03   3.2579E+00  0.000E+00  0.000E+00  0.000E+00  1.19601E+02  1.351E+00  3.429E+00  6.745E-04  1.157E-03  9.143E-05
   1    4   74     1    74    3.2579E+00  1.2482E-03   3.2567E+00  0.000E+00  0.000E+00  0.000E+00  1.19301E+02  1.351E+00  3.429E+00  6.744E-04  1.159E-03  8.897E-05
   1    4   75     1    75    3.2567E+00  1.2479E-03   3.2554E+00  0.000E+00  0.000E+00  0.000E+00  1.19001E+02  1.351E+00  3.428E+00  6.743E-04  1.155E-03  9.323E-05
   1    4   76     1    76    3.2554E+00  1.2475E-03   3.2542E+00  0.000E+00  0.000E+00  0.000E+00  1.18700E+02  1.350E+00  3.428E+00  6.743E-04  1.154E-03  9.386E-05
   1    4   77     1    77    3.2542E+00  1.2472E-03   3.2530E+00  0.000E+00  0.000E+00  0.000E+00  1.18400E+02  1.350E+00  3.428E+00  6.742E-04  1.156E-03  9.116E-05
   1    4   78     1    78    3.2530E+00  1.2469E-03   3.2517E+00  0.000E+00  0.000E+00  0.000E+00  1.18100E+02  1.350E+00  3.427E+00  6.741E-04  1.159E-03  8.820E-05
   1    4   79     1    79    3.2517E+00  1.2465E-03   3.2505E+00  0.000E+00  0.000E+00  0.000E+00  1.17799E+02  1.349E+00  3.427E+00  6.740E-04  1.162E-03  8.496E-05
   1    4   80     1    80    3.2505E+00  1.2462E-03   3.2492E+00  0.000E+00  0.000E+00  0.000E+00  1.17499E+02  1.349E+00  3.427E+00  6.739E-04  1.165E-03  8.144E-05
   1    4   81     1    81    3.2492E+00  1.2458E-03   3.2480E+00  0.000E+00  0.000E+00  0.000E+00  1.17199E+02  1.349E+00  3.426E+00  6.738E-04  1.168E-03  7.764E-05
   1    4   82     1    82    3.2480E+00  1.2455E-03   3.2467E+00  0.000E+00  0.000E+00  0.000E+00  1.16899E+02  1.349E+00  3.426E+00  6.737E-04  1.172E-03  7.353E-05
   1    4   83     1    83    3.2467E+00  1.2451E-03   3.2455E+00  0.000E+00  0.000E+00  0.000E+00  1.16598E+02  1.348E+00  3.426E+00  6.736E-04  1.176E-03  6.913E-05
   1    4   84     1    84    3.2455E+00  1.2448E-03   3.2442E+00  0.000E+00  0.000E+00  0.000E+00  1.16298E+02  1.348E+00  3.425E+00  6.736E-04  1.180E-03  6.442E-05
   1    4   85     1    85    3.2442E+00  1.2445E-03   3.2430E+00  0.000E+00  0.000E+00  0.000E+00  1.15998E+02  1.348E+00  3.425E+00  6.735E-04  1.185E-03  5.941E-05
   1    4   86     1    86    3.2430E+00  1.2441E-03   3.2417E+00  0.000E+00  0.000E+00  0.000E+00  1.15698E+02  1.348E+00  3.425E+00  6.734E-04  1.190E-03  5.408E-05
   1    4   87     1    87    3.2417E+00  1.2438E-03   3.2405E+00  0.000E+00  0.000E+00  0.000E+00  1.15397E+02  1.347E+00  3.424E+00  6.733E-04  1.195E-03  4.844E-05
   1    4   88     1    88    3.2405E+00  1.2434E-03   3.2393E+00  0.000E+00  0.000E+00  0.000E+00  1.15097E+02  1.347E+00  3.424E+00  6.732E-04  1.203E-03  4.064E-05
   1    4   89     1    89    3.2393E+00  1.2431E-03   3.2380E+00  0.000E+00  0.000E+00  0.000E+00  1.14797E+02  1.347E+00  3.424E+00  6.731E-04  1.210E-03  3.329E-05
   1    4   90     1    90    3.2380E+00  1.2427E-03   3.2368E+00  0.000E+00  0.000E+00  0.000E+00  1.14497E+02  1.347E+00  3.424E+00  6.730E-04  1.217E-03  2.558E-05
   1    4   91     1    91    3.2368E+00  1.2424E-03   3.2355E+00  0.000E+00  0.000E+00  0.000E+00  1.14196E+02  1.346E+00  3.423E+00  6.729E-04  1.225E-03  1.752E-05
   1    4   92     1    92    3.2355E+00  1.2421E-03   3.2343E+00  0.000E+00  0.000E+00  0.000E+00  1.13896E+02  1.346E+00  3.423E+00  6.728E-04  1.233E-03  9.133E-06
   1    4   93     1    93    3.2343E+00  1.2417E-03   3.2330E+00  0.000E+00  0.000E+00  0.000E+00  1.13596E+02  1.346E+00  3.423E+00  6.728E-04  1.241E-03  4.265E-07
   1    4   94     1    94    3.2330E+00  1.2414E-03   3.2318E+00  0.000E+00  0.000E+00  0.000E+00  1.13295E+02  1.345E+00  3.422E+00  6.727E-04  1.250E-03 -8.567E-06
   1    4   95     1    95    3.2318E+00  1.2410E-03   3.2306E+00  0.000E+00  0.000E+00  0.000E+00  1.12995E+02  1.345E+00  3.422E+00  6.726E-04  1.259E-03 -1.781E-05
   1    4   96     1    96    3.2306E+00  1.2407E-03   3.2293E+00  0.000E+00  0.000E+00  0.000E+00  1.12695E+02  1.345E+00  3.422E+00  6.725E-04  1.268E-03 -2.727E-05
   1    4   97     1    97    3.2293E+00  1.2404E-03   3.2281E+00  0.000E+00  0.000E+00  0.000E+00  1.12395E+02  1.345E+00  3.421E+00  6.724E-04  1.277E-03 -3.690E-05
   1    4   98     1    98    3.2281E+00  1.2400E-03   3.2268E+00  0.000E+00  0.000E+00  0.000E+00  1.12094E+02  1.344E+00  3.421E+00  6.723E-04  1.287E-03 -4.668E-05
   1    4   99     1    99    3.2268E+00  1.2397E-03   3.2256E+00  0.000E+00  0.000E+00  0.000E+00  1.11794E+02  1.344E+00  3.421E+00  6.722E-04  1.296E-03 -5.661E-05
   1    4  100     1   100    3.2256E+00  1.2393E-03   3.2244E+00  0.000E+00  0.000E+00  0.000E+00  1.11494E+02  1.344E+00  3.420E+00  6.721E-04  1.306E-03 -6.671E-05



1
  VOLUMETRIC BUDGET FOR UNSATURATED ZONE BENEATH STREAMS AT END OF TIME STEP    30 STRESS PERIOD  14
  ------------------------------------------------------------------------------------------------

    CUMULATIVE VOLUMES             L**3    RATES FOR THIS TIME STEP         L**3/T
    ------------------                     ------------------------


          STREAM LOSS =     13532400.0000            STREAM LOSS =            0.1256
    CHANGE IN STORAGE =      1132021.2500      CHANGE IN STORAGE =        1.2035E-02
       RECHARGE TO GW =     12404237.0000         RECHARGE TO GW =            0.1136

             TOTAL IN =     13532400.0000               TOTAL IN =            0.1256

            TOTAL OUT =     13536258.0000              TOTAL OUT =            0.1256

             IN - OUT =        -3858.0000               IN - OUT =        1.4901E-08

  PERCENT DISCREPANCY =           -0.01      PERCENT DISCREPANCY =             0.00



1
  VOLUMETRIC BUDGET FOR ENTIRE MODEL AT END OF TIME STEP   30, STRESS PERIOD  14
  ------------------------------------------------------------------------------

     CUMULATIVE VOLUMES      L**3       RATES FOR THIS TIME STEP      L**3/T
     ------------------                 ------------------------

           IN:                                      IN:
           ---                                      ---
             STORAGE     =    72668488.0000               STORAGE     =           1.2437
       CONSTANT HEAD     =           0.0000         CONSTANT HEAD     =           0.0000
               WELLS     =           0.0000                 WELLS     =           0.0000
     HEAD DEP BOUNDS     =           0.0000       HEAD DEP BOUNDS     =           0.0000
      STREAM LEAKAGE     =    12404290.0000        STREAM LEAKAGE     =           0.1136

                TOTAL IN =    85072776.0000                  TOTAL IN =           1.3573

          OUT:                                     OUT:
          ----                                     ----
             STORAGE     =     2207785.0000               STORAGE     =           0.0000
       CONSTANT HEAD     =           0.0000         CONSTANT HEAD     =           0.0000
               WELLS     =    68940624.0000                 WELLS     =           1.2302
     HEAD DEP BOUNDS     =    13924387.0000       HEAD DEP BOUNDS     =           0.1271
      STREAM LEAKAGE     =           0.0000        STREAM LEAKAGE     =           0.0000

               TOTAL OUT =    85072792.0000                 TOTAL OUT =           1.3573

                IN - OUT =         -16.0000                  IN - OUT =           0.0000

     PERCENT DISCREPANCY =          -0.00         PERCENT DISCREPANCY =           0.00






         TIME SUMMARY AT END OF TIME STEP   30 IN STRESS PERIOD   14
                    SECONDS     MINUTES      HOURS       DAYS        YEARS
                    -----------------------------------------------------------
   TIME STEP LENGTH 2.49961E+05  4166.0      69.434      2.8931     7.92080E-03
 STRESS PERIOD TIME 2.59200E+06  43200.      720.00      30.000     8.21355E-02
         TOTAL TIME 3.62880E+07 6.04800E+05  10080.      420.00      1.1499    
1
1
                            STRESS PERIOD NO.   15, LENGTH =   2592000.    
                            -----------------------------------------------

                              NUMBER OF TIME STEPS =    30

                               MULTIPLIER FOR DELT =     1.100

                            INITIAL TIME STEP SIZE =   15757.40    

 REUSING NON-PARAMETER WELLS FROM LAST STRESS PERIOD

      1 WELL 

 REUSING NON-PARAMETER GHB CELLS FROM LAST STRESS PERIOD

      7 GHB CELLS



 CLASSIFICATION & COUNT OF STREAM SEGMENTS BASED ON SOURCE OF INFLOW:

                HEADWATER     DIVERSION     RECEIVES TRIBUTARY FLOW
                ---------     ---------     -----------------------
                     1              0               0



                    INPUT DATA FOR EACH STREAM SEGMENT
 ---------------------------------------------------------------------------------------------

 SEGMENT    SEG.     INFLOW   OVERLAND   STREAM    STREAM   ICALC  OUTFLOW  DIVERSION PRIORITY
    NO.    LENGTH     RATE     RUNOFF      ET       PPT.    METH.  TO SEG.  FROM SEG.    NO.

      1  2.000E+04 6.180E+00 0.000E+00 0.000E+00 0.000E+00    2        0        0        0


         STREAMBED PROPERTIES AND STREAM DIMENSIONS

 SEGMENT     BED HYD. COND.      BED THICKNESS     ELEV.-TOP OF BED     WIDTH OF STREAM     DEPTH OF STREAM    STREAM ROUGHNESS
    No.     UPPER     LOWER     UPPER     LOWER     UPPER     LOWER     UPPER     LOWER     UPPER     LOWER   CHANNEL      BANK

     1  3.500E-07 3.500E-07                                                                                 3.000E-02 4.000E-02

  EIGHT POINT CROSS-SECTION DATA FOR SEGMENTS WITH ICALC = 2
    X VALUES X VALUES START FROM LEFT SIDE LOOKING DOWNSTREAM

     SEGMENT NO.        X1        X2        X3        X4        X5        X6        X7        X8
            1      0.000E+00 2.000E+00 4.000E+00 6.000E+00 8.000E+00 1.000E+01 1.200E+01 1.400E+01

    Z VALUES ARE RELATIVE TO STREAMBED ELEVATION

     SEGMENT NO.          Z1        Z2        Z3        Z4        Z5        Z6        Z7        Z8
            1      6.000E+00 4.500E+00 3.500E+00 0.000E+00 3.000E-01 3.500E+00 4.500E+00 6.000E+00



 
 SOLVING FOR HEAD 
                                                   Max.-Head-Change                         Max.-Flux-Residual
  Residual-Control   Outer-Iter.   Inner-Iter.     Column Row Layer    Maximum-Head-Change  Column Row Layer    Maximum-Flux-Residual          L2-NORM 
          0                 1           2            50    3     1       0.1717811655E+00      50    3    1         0.7273432821E-01      0.1100544049E+00
          0                 2           2            50    3     1      -0.1706547343E-01      50    3    1        -0.7357547771E-02      0.1108091259E-01
          0                 3           2            50    3     1       0.1518576655E-02      50    3    1         0.6615687177E-03      0.1000305258E-02
          0                 4           2            50    3     1      -0.1205231435E-03      50    3    1        -0.5299657363E-04      0.8044932367E-04
          0                 5           1            50    3     1       0.8395736351E-05      50    3    1         0.3725576929E-05      0.5669527589E-05
          0                 6           1            50    3     1      -0.5041396352E-06      50    3    1        -0.2257547828E-06      0.3439824873E-06

    ------------------------------------------------
       NWT REQUIRED            6 OUTER ITERATIONS 
       AND A TOTAL OF         10 INNER ITERATIONS.
    ------------------------------------------------

 NO OUTPUT CONTROL FOR STRESS PERIOD   15   TIME STEP    1
 
 WELLS WITH REDUCED PUMPING FOR STRESS PERIOD    15 TIME STEP     1
   LAY   ROW   COL         APPL.Q          ACT.Q        GW-HEAD       CELL-BOT
     1     3    50  -0.132997E+01  -0.600676E+00   0.523846E+01   0.000000E+00
     1     5    55  -0.132997E+01  -0.542705E+00   0.486618E+01   0.000000E+00
 
 
 SOLVING FOR HEAD 
                                                   Max.-Head-Change                         Max.-Flux-Residual
  Residual-Control   Outer-Iter.   Inner-Iter.     Column Row Layer    Maximum-Head-Change  Column Row Layer    Maximum-Flux-Residual          L2-NORM 
          0                 1           2            50    3     1       0.8996260687E-01      50    3    1         0.3569363543E-01      0.6943130796E-01
          0                 2           2            50    3     1      -0.8796919577E-02      50    3    1        -0.3589102869E-02      0.6869656913E-02
          0                 3           2            50    3     1       0.7810845423E-03      50    3    1         0.3228762007E-03      0.6246959716E-03
          0                 4           1            50    3     1      -0.6196172623E-04      50    3    1        -0.2586348925E-04      0.5060985467E-04
          0                 5           1            50    3     1       0.4316175312E-05      50    3    1         0.1818157843E-05      0.3584327432E-05
          0                 6           1            50    3     1      -0.2591726597E-06      50    3    1        -0.1101723830E-06      0.2180502420E-06

    ------------------------------------------------
       NWT REQUIRED            6 OUTER ITERATIONS 
       AND A TOTAL OF          9 INNER ITERATIONS.
    ------------------------------------------------

 NO OUTPUT CONTROL FOR STRESS PERIOD   15   TIME STEP    2
 
 WELLS WITH REDUCED PUMPING FOR STRESS PERIOD    15 TIME STEP     2
   LAY   ROW   COL         APPL.Q          ACT.Q        GW-HEAD       CELL-BOT
     1     3    50  -0.132991E+01  -0.615189E+00   0.532035E+01   0.000000E+00
     1     5    55  -0.132991E+01  -0.555902E+00   0.494074E+01   0.000000E+00
 
 
 SOLVING FOR HEAD 
                                                   Max.-Head-Change                         Max.-Flux-Residual
  Residual-Control   Outer-Iter.   Inner-Iter.     Column Row Layer    Maximum-Head-Change  Column Row Layer    Maximum-Flux-Residual          L2-NORM 
          0                 1           2            50    3     1       0.4580026928E-01      50    3    1         0.1691766829E-01      0.5487056065E-01
          0                 2           2            50    3     1      -0.4412331988E-02      50    3    1        -0.1696594103E-02      0.5362115825E-02
          0                 3           2            50    3     1       0.3902593490E-03      50    3    1         0.1526578253E-03      0.4913267204E-03
          0                 4           1            50    3     1      -0.3092989325E-04      50    3    1        -0.1222815462E-04      0.4015902534E-04
          0                 5           1            50    3     1       0.2154307164E-05      50    3    1         0.8596138070E-06      0.2862285294E-05
          0                 6           1            50    3     1      -0.1293586097E-06      50    3    1        -0.5208846870E-07      0.1747706837E-06

    ------------------------------------------------
       NWT REQUIRED            6 OUTER ITERATIONS 
       AND A TOTAL OF          9 INNER ITERATIONS.
    ------------------------------------------------

 NO OUTPUT CONTROL FOR STRESS PERIOD   15   TIME STEP    3
 
 WELLS WITH REDUCED PUMPING FOR STRESS PERIOD    15 TIME STEP     3
   LAY   ROW   COL         APPL.Q          ACT.Q        GW-HEAD       CELL-BOT
     1     3    50  -0.133011E+01  -0.622700E+00   0.536210E+01   0.000000E+00
     1     5    55  -0.133011E+01  -0.562719E+00   0.497865E+01   0.000000E+00
 
 
 SOLVING FOR HEAD 
                                                   Max.-Head-Change                         Max.-Flux-Residual
  Residual-Control   Outer-Iter.   Inner-Iter.     Column Row Layer    Maximum-Head-Change  Column Row Layer    Maximum-Flux-Residual          L2-NORM 
          0                 1           2            50    3     1       0.2323925670E-01      50    3    1         0.7966055825E-02      0.5083307623E-01
          0                 2           2            50    3     1      -0.2209411711E-02      50    3    1        -0.7977401691E-03      0.4950198936E-02
          0                 3           2            50    3     1       0.1944235375E-03      50    3    1         0.7178784039E-04      0.4555090906E-03
          0                 4           1            50    3     1      -0.1538482092E-04      50    3    1        -0.5750268037E-05      0.3744374529E-04
          0                 5           1            50    3     1       0.1071266223E-05      50    3    1         0.4042283896E-06      0.2680982088E-05
          0                 6           1            50    3     1      -0.6432447782E-07      50    3    1        -0.2449404995E-07      0.1641923125E-06

    ------------------------------------------------
       NWT REQUIRED            6 OUTER ITERATIONS 
       AND A TOTAL OF          9 INNER ITERATIONS.
    ------------------------------------------------

 NO OUTPUT CONTROL FOR STRESS PERIOD   15   TIME STEP    4
 
 WELLS WITH REDUCED PUMPING FOR STRESS PERIOD    15 TIME STEP     4
   LAY   ROW   COL         APPL.Q          ACT.Q        GW-HEAD       CELL-BOT
     1     3    50  -0.132993E+01  -0.626389E+00   0.538331E+01   0.000000E+00
     1     5    55  -0.132993E+01  -0.566026E+00   0.499766E+01   0.000000E+00
 
 
 SOLVING FOR HEAD 
                                                   Max.-Head-Change                         Max.-Flux-Residual
  Residual-Control   Outer-Iter.   Inner-Iter.     Column Row Layer    Maximum-Head-Change  Column Row Layer    Maximum-Flux-Residual          L2-NORM 
          0                 1           2            66    1     1      -0.1997936420E-01      50    3    1         0.3564658622E-02      0.4971432034E-01
          0                 2           2            66    1     1       0.1933650869E-02      50    3    1        -0.3566367611E-03      0.4839668822E-02
          0                 3           2            65    1     1      -0.1701147863E-03      50    3    1         0.3209584550E-04      0.4463456048E-03
          0                 4           1            65    1     1       0.1340474708E-04      50    3    1        -0.2570887035E-05      0.3682822245E-04
          0                 5           1            65    1     1      -0.9305388239E-06      50    3    1         0.1807234261E-06      0.2646171352E-05

    ------------------------------------------------
       NWT REQUIRED            5 OUTER ITERATIONS 
       AND A TOTAL OF          8 INNER ITERATIONS.
    ------------------------------------------------

 NO OUTPUT CONTROL FOR STRESS PERIOD   15   TIME STEP    5
 
 WELLS WITH REDUCED PUMPING FOR STRESS PERIOD    15 TIME STEP     5
   LAY   ROW   COL         APPL.Q          ACT.Q        GW-HEAD       CELL-BOT
     1     3    50  -0.133009E+01  -0.628277E+00   0.539350E+01   0.000000E+00
     1     5    55  -0.133009E+01  -0.567669E+00   0.500650E+01   0.000000E+00
 
 
 SOLVING FOR HEAD 
                                                   Max.-Head-Change                         Max.-Flux-Residual
  Residual-Control   Outer-Iter.   Inner-Iter.     Column Row Layer    Maximum-Head-Change  Column Row Layer    Maximum-Flux-Residual          L2-NORM 
          0                 1           2            66    1     1      -0.2194850314E-01      66    1    1        -0.2840529391E-02      0.4936956975E-01
          0                 2           2            66    1     1       0.2118350156E-02      66    1    1         0.2840497110E-03      0.4806139817E-02
          0                 3           2            65    1     1      -0.1858960918E-03      66    1    1        -0.2556476371E-04      0.4440166132E-03
          0                 4           1            65    1     1       0.1462491660E-04      66    1    1         0.2047734696E-05      0.3675189093E-04
          0                 5           1            65    1     1      -0.1014208308E-05      69    4    1         0.1608320250E-06      0.2649171420E-05
          0                 6           1            65    1     1       0.6078096813E-07      74    4    1        -0.1045524556E-07      0.1630860817E-06

    ------------------------------------------------
       NWT REQUIRED            6 OUTER ITERATIONS 
       AND A TOTAL OF          9 INNER ITERATIONS.
    ------------------------------------------------

 NO OUTPUT CONTROL FOR STRESS PERIOD   15   TIME STEP    6
 
 WELLS WITH REDUCED PUMPING FOR STRESS PERIOD    15 TIME STEP     6
   LAY   ROW   COL         APPL.Q          ACT.Q        GW-HEAD       CELL-BOT
     1     3    50  -0.132992E+01  -0.629061E+00   0.539835E+01   0.000000E+00
     1     5    55  -0.132992E+01  -0.568290E+00   0.501040E+01   0.000000E+00
 
 
 SOLVING FOR HEAD 
                                                   Max.-Head-Change                         Max.-Flux-Residual
  Residual-Control   Outer-Iter.   Inner-Iter.     Column Row Layer    Maximum-Head-Change  Column Row Layer    Maximum-Flux-Residual          L2-NORM 
          0                 1           2            66    1     1      -0.2410973908E-01      66    1    1        -0.2837520939E-02      0.4918974620E-01
          0                 2           2            66    1     1       0.2320144831E-02      66    1    1         0.2837482153E-03      0.4789547953E-02
          0                 3           2            65    1     1      -0.2030612651E-03      66    1    1        -0.2553768977E-04      0.4431349038E-03
          0                 4           1            65    1     1       0.1594613800E-04      66    1    1         0.2045565322E-05      0.3678962792E-04
          0                 5           1            65    1     1      -0.1104476296E-05      68    4    1         0.1670808913E-06      0.2660641154E-05
          0                 6           1            65    1     1       0.6614358510E-07      74    4    1        -0.1102592151E-07      0.1642518039E-06

    ------------------------------------------------
       NWT REQUIRED            6 OUTER ITERATIONS 
       AND A TOTAL OF          9 INNER ITERATIONS.
    ------------------------------------------------

 NO OUTPUT CONTROL FOR STRESS PERIOD   15   TIME STEP    7
 
 WELLS WITH REDUCED PUMPING FOR STRESS PERIOD    15 TIME STEP     7
   LAY   ROW   COL         APPL.Q          ACT.Q        GW-HEAD       CELL-BOT
     1     3    50  -0.133004E+01  -0.629385E+00   0.539987E+01   0.000000E+00
     1     5    55  -0.133004E+01  -0.568481E+00   0.501119E+01   0.000000E+00
 
 
 SOLVING FOR HEAD 
                                                   Max.-Head-Change                         Max.-Flux-Residual
  Residual-Control   Outer-Iter.   Inner-Iter.     Column Row Layer    Maximum-Head-Change  Column Row Layer    Maximum-Flux-Residual          L2-NORM 
          0                 1           2            66    1     1      -0.2648126530E-01      66    1    1        -0.2834318175E-02      0.4906996048E-01
          0                 2           2            66    1     1       0.2540530728E-02      66    1    1         0.2834271659E-03      0.4776587117E-02
          0                 3           2            65    1     1      -0.2217196638E-03      66    1    1        -0.2550886669E-04      0.4425009676E-03
          0                 4           1            65    1     1       0.1737523501E-04      66    4    1        -0.2094709032E-05      0.3685175512E-04
          0                 5           1            65    1     1      -0.1201705345E-05      68    4    1         0.1754674326E-06      0.2674461485E-05
          0                 6           1            65    1     1       0.7190177540E-07      74    4    1        -0.1160010932E-07      0.1656094263E-06

    ------------------------------------------------
       NWT REQUIRED            6 OUTER ITERATIONS 
       AND A TOTAL OF          9 INNER ITERATIONS.
    ------------------------------------------------

 NO OUTPUT CONTROL FOR STRESS PERIOD   15   TIME STEP    8
 
 WELLS WITH REDUCED PUMPING FOR STRESS PERIOD    15 TIME STEP     8
   LAY   ROW   COL         APPL.Q          ACT.Q        GW-HEAD       CELL-BOT
     1     3    50  -0.133006E+01  -0.629336E+00   0.539955E+01   0.000000E+00
     1     5    55  -0.133006E+01  -0.568321E+00   0.501026E+01   0.000000E+00
 
 
 SOLVING FOR HEAD 
                                                   Max.-Head-Change                         Max.-Flux-Residual
  Residual-Control   Outer-Iter.   Inner-Iter.     Column Row Layer    Maximum-Head-Change  Column Row Layer    Maximum-Flux-Residual          L2-NORM 
          0                 1           2            66    1     1      -0.2908298698E-01      66    1    1        -0.2830884896E-02      0.4897142430E-01
          0                 2           2            66    1     1       0.2781185024E-02      66    1    1         0.2830829262E-03      0.4766684591E-02
          0                 3           2            65    1     1      -0.2419886909E-03      66    1    1        -0.2547796853E-04      0.4422521298E-03
          0                 4           1            65    1     1       0.1891958078E-04      66    4    1        -0.2170025191E-05      0.3694469249E-04
          0                 5           1            65    1     1      -0.1306279879E-05      68    4    1         0.1832796617E-06      0.2690576548E-05
          0                 6           1            64    1     1       0.7807218461E-07      68    4    1        -0.1217879131E-07      0.1671351055E-06

    ------------------------------------------------
       NWT REQUIRED            6 OUTER ITERATIONS 
       AND A TOTAL OF          9 INNER ITERATIONS.
    ------------------------------------------------

 NO OUTPUT CONTROL FOR STRESS PERIOD   15   TIME STEP    9
 
 WELLS WITH REDUCED PUMPING FOR STRESS PERIOD    15 TIME STEP     9
   LAY   ROW   COL         APPL.Q          ACT.Q        GW-HEAD       CELL-BOT
     1     3    50  -0.132994E+01  -0.629034E+00   0.539815E+01   0.000000E+00
     1     5    55  -0.132994E+01  -0.567908E+00   0.500820E+01   0.000000E+00
 
 
 SOLVING FOR HEAD 
                                                   Max.-Head-Change                         Max.-Flux-Residual
  Residual-Control   Outer-Iter.   Inner-Iter.     Column Row Layer    Maximum-Head-Change  Column Row Layer    Maximum-Flux-Residual          L2-NORM 
          0                 1           2            66    1     1      -0.3193648510E-01      66    1    1        -0.2827185927E-02      0.4886283836E-01
          0                 2           2            66    1     1       0.3043921118E-02      66    1    1         0.2827119556E-03      0.4757813557E-02
          0                 3           2            66    1     1      -0.2640211755E-03      66    1    1        -0.2544467809E-04      0.4420601307E-03
          0                 4           1            65    1     1       0.2058722009E-04      66    4    1        -0.2243169527E-05      0.3704144126E-04
          0                 5           1            65    1     1      -0.1418604363E-05      68    4    1         0.1909883700E-06      0.2707306361E-05
          0                 6           1            64    1     1       0.8469501153E-07      68    4    1        -0.1279850181E-07      0.1687406711E-06

    ------------------------------------------------
       NWT REQUIRED            6 OUTER ITERATIONS 
       AND A TOTAL OF          9 INNER ITERATIONS.
    ------------------------------------------------

 NO OUTPUT CONTROL FOR STRESS PERIOD   15   TIME STEP   10
 
 WELLS WITH REDUCED PUMPING FOR STRESS PERIOD    15 TIME STEP    10
   LAY   ROW   COL         APPL.Q          ACT.Q        GW-HEAD       CELL-BOT
     1     3    50  -0.133003E+01  -0.628593E+00   0.539544E+01   0.000000E+00
     1     5    55  -0.133003E+01  -0.567378E+00   0.500502E+01   0.000000E+00
 
 
 SOLVING FOR HEAD 
                                                   Max.-Head-Change                         Max.-Flux-Residual
  Residual-Control   Outer-Iter.   Inner-Iter.     Column Row Layer    Maximum-Head-Change  Column Row Layer    Maximum-Flux-Residual          L2-NORM 
          0                 1           2            66    1     1      -0.3506510183E-01      66    1    1        -0.2823176760E-02      0.4874365333E-01
          0                 2           2            66    1     1       0.3330690900E-02      66    1    1         0.2823097747E-03      0.4746284479E-02
          0                 3           2            66    1     1      -0.2879397716E-03      66    1    1        -0.2540859390E-04      0.4416372534E-03
          0                 4           1            65    1     1       0.2238606911E-04      66    4    1        -0.2313876781E-05      0.3712216319E-04
          0                 5           1            65    1     1      -0.1539057518E-05      68    4    1         0.1985501346E-06      0.2723174229E-05
          0                 6           1            64    1     1       0.9175725484E-07      68    4    1        -0.1341647504E-07      0.1703239874E-06

    ------------------------------------------------
       NWT REQUIRED            6 OUTER ITERATIONS 
       AND A TOTAL OF          9 INNER ITERATIONS.
    ------------------------------------------------

 NO OUTPUT CONTROL FOR STRESS PERIOD   15   TIME STEP   11
 
 WELLS WITH REDUCED PUMPING FOR STRESS PERIOD    15 TIME STEP    11
   LAY   ROW   COL         APPL.Q          ACT.Q        GW-HEAD       CELL-BOT
     1     3    50  -0.133004E+01  -0.627975E+00   0.539193E+01   0.000000E+00
     1     5    55  -0.133004E+01  -0.566680E+00   0.500106E+01   0.000000E+00
 
 
 SOLVING FOR HEAD 
                                                   Max.-Head-Change                         Max.-Flux-Residual
  Residual-Control   Outer-Iter.   Inner-Iter.     Column Row Layer    Maximum-Head-Change  Column Row Layer    Maximum-Flux-Residual          L2-NORM 
          0                 1           2            67    1     1      -0.3849489580E-01      66    1    1        -0.2818802965E-02      0.4862944507E-01
          0                 2           2            66    1     1       0.3643623644E-02      66    1    1         0.2818709115E-03      0.4733696221E-02
          0                 3           2            66    1     1      -0.3138983680E-03      66    1    1        -0.2536922513E-04      0.4410080708E-03
          0                 4           1            65    1     1       0.2432532491E-04      66    4    1        -0.2381909292E-05      0.3718522347E-04
          0                 5           1            65    1     1      -0.1668079973E-05      68    4    1         0.2059317676E-06      0.2738175687E-05
          0                 6           1            64    1     1       0.9927651599E-07      68    4    1        -0.1402965388E-07      0.1719007243E-06

    ------------------------------------------------
       NWT REQUIRED            6 OUTER ITERATIONS 
       AND A TOTAL OF          9 INNER ITERATIONS.
    ------------------------------------------------

 NO OUTPUT CONTROL FOR STRESS PERIOD   15   TIME STEP   12
 
 WELLS WITH REDUCED PUMPING FOR STRESS PERIOD    15 TIME STEP    12
   LAY   ROW   COL         APPL.Q          ACT.Q        GW-HEAD       CELL-BOT
     1     3    50  -0.132995E+01  -0.627205E+00   0.538785E+01   0.000000E+00
     1     5    55  -0.132995E+01  -0.565832E+00   0.499652E+01   0.000000E+00
 
 
 SOLVING FOR HEAD 
                                                   Max.-Head-Change                         Max.-Flux-Residual
  Residual-Control   Outer-Iter.   Inner-Iter.     Column Row Layer    Maximum-Head-Change  Column Row Layer    Maximum-Flux-Residual          L2-NORM 
          0                 1           2            67    1     1      -0.4225799639E-01      67    1    1        -0.2814139100E-02      0.4851645690E-01
          0                 2           2            66    1     1       0.3985025947E-02      67    1    1         0.2814033177E-03      0.4722643734E-02
          0                 3           2            66    1     1      -0.3420656545E-03      67    1    1        -0.2532726302E-04      0.4405983347E-03
          0                 4           1            65    1     1       0.2641486199E-04      66    4    1        -0.2447038955E-05      0.3726682112E-04
          0                 5           1            65    1     1      -0.1806136925E-05      68    4    1         0.2131012025E-06      0.2754395119E-05
          0                 6           1            64    1     1       0.1072670584E-06      68    4    1        -0.1463475918E-07      0.1735594880E-06

    ------------------------------------------------
       NWT REQUIRED            6 OUTER ITERATIONS 
       AND A TOTAL OF          9 INNER ITERATIONS.
    ------------------------------------------------

 NO OUTPUT CONTROL FOR STRESS PERIOD   15   TIME STEP   13
 
 WELLS WITH REDUCED PUMPING FOR STRESS PERIOD    15 TIME STEP    13
   LAY   ROW   COL         APPL.Q          ACT.Q        GW-HEAD       CELL-BOT
     1     3    50  -0.132996E+01  -0.626335E+00   0.538293E+01   0.000000E+00
     1     5    55  -0.132996E+01  -0.564878E+00   0.499114E+01   0.000000E+00
 
 
 SOLVING FOR HEAD 
                                                   Max.-Head-Change                         Max.-Flux-Residual
  Residual-Control   Outer-Iter.   Inner-Iter.     Column Row Layer    Maximum-Head-Change  Column Row Layer    Maximum-Flux-Residual          L2-NORM 
          0                 1           2            67    1     1      -0.4638028193E-01      67    1    1        -0.2809260623E-02      0.4838026987E-01
          0                 2           2            67    1     1       0.4357732060E-02      67    1    1         0.2809135687E-03      0.4711750444E-02
          0                 3           2            66    1     1      -0.3726256920E-03      67    1    1        -0.2528334862E-04      0.4401969718E-03
          0                 4           1            65    1     1       0.2866556788E-04      66    4    1        -0.2509055305E-05      0.3734429553E-04
          0                 5           1            65    1     1      -0.1953733557E-05      68    4    1         0.2200276832E-06      0.2770072124E-05
          0                 6           1            64    1     1       0.1157427420E-06      68    4    1        -0.1522857751E-07      0.1751942819E-06

    ------------------------------------------------
       NWT REQUIRED            6 OUTER ITERATIONS 
       AND A TOTAL OF          9 INNER ITERATIONS.
    ------------------------------------------------

 NO OUTPUT CONTROL FOR STRESS PERIOD   15   TIME STEP   14
 
 WELLS WITH REDUCED PUMPING FOR STRESS PERIOD    15 TIME STEP    14
   LAY   ROW   COL         APPL.Q          ACT.Q        GW-HEAD       CELL-BOT
     1     3    50  -0.133003E+01  -0.625340E+00   0.537715E+01   0.000000E+00
     1     5    55  -0.133003E+01  -0.563795E+00   0.498489E+01   0.000000E+00
 
 
 SOLVING FOR HEAD 
                                                   Max.-Head-Change                         Max.-Flux-Residual
  Residual-Control   Outer-Iter.   Inner-Iter.     Column Row Layer    Maximum-Head-Change  Column Row Layer    Maximum-Flux-Residual          L2-NORM 
          0                 1           2            67    1     1      -0.5089999882E-01      67    1    1        -0.2803867792E-02      0.4823609819E-01
          0                 2           2            66    1     1       0.4768690420E-02      67    1    1         0.2803723661E-03      0.4696021053E-02
          0                 3           2            66    1     1      -0.4064059486E-03      67    1    1        -0.2523481673E-04      0.4391267820E-03
          0                 4           1            66    1     1       0.3112303314E-04      65    4    1        -0.2535218881E-05      0.3736148439E-04
          0                 5           1            65    1     1      -0.2112507852E-05      68    4    1         0.2267525687E-06      0.2781508814E-05
          0                 6           1            64    1     1       0.1247202201E-06      68    4    1        -0.1581231146E-07      0.1766022805E-06

    ------------------------------------------------
       NWT REQUIRED            6 OUTER ITERATIONS 
       AND A TOTAL OF          9 INNER ITERATIONS.
    ------------------------------------------------

 NO OUTPUT CONTROL FOR STRESS PERIOD   15   TIME STEP   15
 
 WELLS WITH REDUCED PUMPING FOR STRESS PERIOD    15 TIME STEP    15
   LAY   ROW   COL         APPL.Q          ACT.Q        GW-HEAD       CELL-BOT
     1     3    50  -0.133003E+01  -0.624190E+00   0.537069E+01   0.000000E+00
     1     5    55  -0.133003E+01  -0.562557E+00   0.497792E+01   0.000000E+00
 
 
 SOLVING FOR HEAD 
                                                   Max.-Head-Change                         Max.-Flux-Residual
  Residual-Control   Outer-Iter.   Inner-Iter.     Column Row Layer    Maximum-Head-Change  Column Row Layer    Maximum-Flux-Residual          L2-NORM 
          0                 1           2            67    1     1      -0.5585094129E-01      66    3    1        -0.2798312910E-02      0.4809531078E-01
          0                 2           2            66    1     1       0.5213609125E-02      67    1    1         0.2797971934E-03      0.4681365415E-02
          0                 3           2            66    1     1      -0.4425884637E-03      66    3    1        -0.2518393561E-04      0.4382022822E-03
          0                 4           1            66    1     1       0.3375757940E-04      65    4    1        -0.2591268910E-05      0.3738517096E-04
          0                 5           1            65    1     1      -0.2281404970E-05      68    4    1         0.2331353741E-06      0.2792577411E-05
          0                 6           1            64    1     1       0.1342046602E-06      68    4    1        -0.1637590685E-07      0.1779530442E-06

    ------------------------------------------------
       NWT REQUIRED            6 OUTER ITERATIONS 
       AND A TOTAL OF          9 INNER ITERATIONS.
    ------------------------------------------------

 NO OUTPUT CONTROL FOR STRESS PERIOD   15   TIME STEP   16
 
 WELLS WITH REDUCED PUMPING FOR STRESS PERIOD    15 TIME STEP    16
   LAY   ROW   COL         APPL.Q          ACT.Q        GW-HEAD       CELL-BOT
     1     3    50  -0.133003E+01  -0.622903E+00   0.536345E+01   0.000000E+00
     1     5    55  -0.133003E+01  -0.561177E+00   0.497016E+01   0.000000E+00
 
 
 SOLVING FOR HEAD 
                                                   Max.-Head-Change                         Max.-Flux-Residual
  Residual-Control   Outer-Iter.   Inner-Iter.     Column Row Layer    Maximum-Head-Change  Column Row Layer    Maximum-Flux-Residual          L2-NORM 
          0                 1           2            67    1     1      -0.6126360515E-01      66    3    1        -0.2793054424E-02      0.4792736982E-01
          0                 2           2            67    1     1       0.5697847920E-02      66    3    1         0.2792589530E-03      0.4667881096E-02
          0                 3           2            66    1     1      -0.4817785683E-03      66    3    1        -0.2513628366E-04      0.4375212990E-03
          0                 4           1            66    1     1       0.3659482829E-04      65    4    1        -0.2642580299E-05      0.3743276060E-04
          0                 5           1            65    1     1      -0.2461784258E-05      68    4    1         0.2391946783E-06      0.2804993148E-05
          0                 6           1            64    1     1       0.1442155233E-06      68    4    1        -0.1691929974E-07      0.1793592810E-06

    ------------------------------------------------
       NWT REQUIRED            6 OUTER ITERATIONS 
       AND A TOTAL OF          9 INNER ITERATIONS.
    ------------------------------------------------

 NO OUTPUT CONTROL FOR STRESS PERIOD   15   TIME STEP   17
 
 WELLS WITH REDUCED PUMPING FOR STRESS PERIOD    15 TIME STEP    17
   LAY   ROW   COL         APPL.Q          ACT.Q        GW-HEAD       CELL-BOT
     1     3    50  -0.132998E+01  -0.621464E+00   0.535547E+01   0.000000E+00
     1     5    55  -0.132998E+01  -0.559642E+00   0.496163E+01   0.000000E+00
 
 
 SOLVING FOR HEAD 
                                                   Max.-Head-Change                         Max.-Flux-Residual
  Residual-Control   Outer-Iter.   Inner-Iter.     Column Row Layer    Maximum-Head-Change  Column Row Layer    Maximum-Flux-Residual          L2-NORM 
          0                 1           2            67    1     1      -0.6717696298E-01      67    2    1        -0.2785020681E-02      0.4774872001E-01
          0                 2           2            67    1     1       0.6226564863E-02      67    1    1         0.2784785880E-03      0.4648430923E-02
          0                 3           2            66    1     1      -0.5241838338E-03      67    1    1        -0.2506508078E-04      0.4361085023E-03
          0                 4           1            66    1     1       0.3964433946E-04      65    4    1        -0.2690055714E-05      0.3741771577E-04
          0                 5           1            65    1     1      -0.2653829647E-05      68    4    1         0.2448973859E-06      0.2812588738E-05
          0                 6           1            65    1     1       0.1548062708E-06      68    4    1        -0.1743848621E-07      0.1804604030E-06

    ------------------------------------------------
       NWT REQUIRED            6 OUTER ITERATIONS 
       AND A TOTAL OF          9 INNER ITERATIONS.
    ------------------------------------------------

 NO OUTPUT CONTROL FOR STRESS PERIOD   15   TIME STEP   18
 
 WELLS WITH REDUCED PUMPING FOR STRESS PERIOD    15 TIME STEP    18
   LAY   ROW   COL         APPL.Q          ACT.Q        GW-HEAD       CELL-BOT
     1     3    50  -0.132998E+01  -0.619882E+00   0.534659E+01   0.000000E+00
     1     5    55  -0.132998E+01  -0.557956E+00   0.495216E+01   0.000000E+00
 
 
 SOLVING FOR HEAD 
                                                   Max.-Head-Change                         Max.-Flux-Residual
  Residual-Control   Outer-Iter.   Inner-Iter.     Column Row Layer    Maximum-Head-Change  Column Row Layer    Maximum-Flux-Residual          L2-NORM 
          0                 1           2            67    1     1      -0.7363767188E-01      67    1    1        -0.2777020951E-02      0.4756431452E-01
          0                 2           2            67    1     1       0.6804757507E-02      67    1    1         0.2776750673E-03      0.4631004578E-02
          0                 3           2            67    1     1      -0.5704585966E-03      67    1    1        -0.2499304860E-04      0.4349920888E-03
          0                 4           1            66    1     1       0.4293155753E-04      65    4    1        -0.2733513018E-05      0.3742474202E-04
          0                 5           1            65    1     1      -0.2858387776E-05      68    4    1         0.2489350450E-06      0.2820527237E-05
          0                 6           1            65    1     1       0.1659613027E-06      68    4    1        -0.1787256743E-07      0.1815079339E-06

    ------------------------------------------------
       NWT REQUIRED            6 OUTER ITERATIONS 
       AND A TOTAL OF          9 INNER ITERATIONS.
    ------------------------------------------------

 NO OUTPUT CONTROL FOR STRESS PERIOD   15   TIME STEP   19
 
 WELLS WITH REDUCED PUMPING FOR STRESS PERIOD    15 TIME STEP    19
   LAY   ROW   COL         APPL.Q          ACT.Q        GW-HEAD       CELL-BOT
     1     3    50  -0.132997E+01  -0.618140E+00   0.533681E+01   0.000000E+00
     1     5    55  -0.132997E+01  -0.556105E+00   0.494175E+01   0.000000E+00
 
 
 SOLVING FOR HEAD 
                                                   Max.-Head-Change                         Max.-Flux-Residual
  Residual-Control   Outer-Iter.   Inner-Iter.     Column Row Layer    Maximum-Head-Change  Column Row Layer    Maximum-Flux-Residual          L2-NORM 
          0                 1           2            67    1     1      -0.8070567670E-01      67    1    1        -0.2768064665E-02      0.4731272604E-01
          0                 2           2            67    1     1       0.7435682382E-02      67    1    1         0.2767758191E-03      0.4613884524E-02
          0                 3           2            68    7     1      -0.6215736546E-03      67    1    1        -0.2491242812E-04      0.4345240039E-03
          0                 4           1            67    1     1       0.4650502512E-04      65    4    1        -0.2772914295E-05      0.3751917654E-04
          0                 5           1            66    1     1      -0.3077215178E-05      67    4    1         0.2504510661E-06      0.2835099188E-05
          0                 6           1            65    1     1       0.1777265829E-06      66    4    1        -0.1791002013E-07      0.1829156376E-06

    ------------------------------------------------
       NWT REQUIRED            6 OUTER ITERATIONS 
       AND A TOTAL OF          9 INNER ITERATIONS.
    ------------------------------------------------

 NO OUTPUT CONTROL FOR STRESS PERIOD   15   TIME STEP   20
 
 WELLS WITH REDUCED PUMPING FOR STRESS PERIOD    15 TIME STEP    20
   LAY   ROW   COL         APPL.Q          ACT.Q        GW-HEAD       CELL-BOT
     1     3    50  -0.133002E+01  -0.616243E+00   0.532602E+01   0.000000E+00
     1     5    55  -0.133002E+01  -0.554090E+00   0.493029E+01   0.000000E+00
 
 
 SOLVING FOR HEAD 
                                                   Max.-Head-Change                         Max.-Flux-Residual
  Residual-Control   Outer-Iter.   Inner-Iter.     Column Row Layer    Maximum-Head-Change  Column Row Layer    Maximum-Flux-Residual          L2-NORM 
          0                 1           2            67    1     1      -0.8840809365E-01      67    3    1        -0.2758720995E-02      0.4682856694E-01
          0                 2           2            68    7     1       0.8122034760E-02      67    1    1         0.2758296106E-03      0.4601521447E-02
          0                 3           2            68    7     1      -0.6782045490E-03      67    1    1        -0.2482762738E-04      0.4358680934E-03
          0                 4           1            68    1     1       0.5047299907E-04      65    4    1        -0.2808153948E-05      0.3779210612E-04
          0                 5           1            67    1     1      -0.3312696497E-05      67    4    1         0.2546863147E-06      0.2860306718E-05
          0                 6           1            65    1     1       0.1901445654E-06      66    4    1        -0.1835141816E-07      0.1847405927E-06

    ------------------------------------------------
       NWT REQUIRED            6 OUTER ITERATIONS 
       AND A TOTAL OF          9 INNER ITERATIONS.
    ------------------------------------------------

 NO OUTPUT CONTROL FOR STRESS PERIOD   15   TIME STEP   21
 
 WELLS WITH REDUCED PUMPING FOR STRESS PERIOD    15 TIME STEP    21
   LAY   ROW   COL         APPL.Q          ACT.Q        GW-HEAD       CELL-BOT
     1     3    50  -0.133000E+01  -0.614165E+00   0.531436E+01   0.000000E+00
     1     5    55  -0.133000E+01  -0.551885E+00   0.491791E+01   0.000000E+00
 
 
 SOLVING FOR HEAD 
                                                   Max.-Head-Change                         Max.-Flux-Residual
  Residual-Control   Outer-Iter.   Inner-Iter.     Column Row Layer    Maximum-Head-Change  Column Row Layer    Maximum-Flux-Residual          L2-NORM 
          0                 1           2            67    1     1      -0.9680162530E-01      67    1    1        -0.2747931183E-02      0.4606784211E-01
          0                 2           2            68    7     1       0.8869282599E-02      67    1    1         0.2747514894E-03      0.4512580929E-02
          0                 3           2            68    7     1      -0.7377264876E-03      67    1    1        -0.2473098679E-04      0.4276655022E-03
          0                 4           1            68    1     1       0.5466420416E-04      67    4    1        -0.2800786424E-05      0.3720741436E-04
          0                 5           1            65    1     1      -0.3566102208E-05      66    4    1         0.2589152270E-06      0.2822729972E-05
          0                 6           1            65    1     1       0.2036501262E-06      66    4    1        -0.1879947398E-07      0.1827901576E-06

    ------------------------------------------------
       NWT REQUIRED            6 OUTER ITERATIONS 
       AND A TOTAL OF          9 INNER ITERATIONS.
    ------------------------------------------------

 NO OUTPUT CONTROL FOR STRESS PERIOD   15   TIME STEP   22
 
 WELLS WITH REDUCED PUMPING FOR STRESS PERIOD    15 TIME STEP    22
   LAY   ROW   COL         APPL.Q          ACT.Q        GW-HEAD       CELL-BOT
     1     3    50  -0.132999E+01  -0.611925E+00   0.530178E+01   0.000000E+00
     1     5    55  -0.132999E+01  -0.549509E+00   0.490453E+01   0.000000E+00
 
 
 SOLVING FOR HEAD 
                                                   Max.-Head-Change                         Max.-Flux-Residual
  Residual-Control   Outer-Iter.   Inner-Iter.     Column Row Layer    Maximum-Head-Change  Column Row Layer    Maximum-Flux-Residual          L2-NORM 
          0                 1           3            67    1     1      -0.1059201702E+00      67    1    1        -0.2735935842E-02      0.4551852442E-01
          0                 2           2            68    1     1       0.9674907002E-02      67    1    1         0.2735447175E-03      0.4452677468E-02
          0                 3           2            68    7     1      -0.8014004760E-03      67    1    1        -0.2462282091E-04      0.4224988157E-03
          0                 4           1            68    1     1       0.5912813355E-04      72    4    1        -0.3018974963E-05      0.3686582332E-04
          0                 5           1            67    1     1      -0.3832430104E-05      72    4    1         0.2799771881E-06      0.2799413876E-05
          0                 6           1            65    1     1       0.2173727591E-06      72    4    1        -0.2031243973E-07      0.1815270086E-06

    ------------------------------------------------
       NWT REQUIRED            6 OUTER ITERATIONS 
       AND A TOTAL OF         10 INNER ITERATIONS.
    ------------------------------------------------

 NO OUTPUT CONTROL FOR STRESS PERIOD   15   TIME STEP   23
 
 WELLS WITH REDUCED PUMPING FOR STRESS PERIOD    15 TIME STEP    23
   LAY   ROW   COL         APPL.Q          ACT.Q        GW-HEAD       CELL-BOT
     1     3    50  -0.132998E+01  -0.609511E+00   0.528820E+01   0.000000E+00
     1     5    55  -0.132998E+01  -0.546944E+00   0.489008E+01   0.000000E+00
 
 
 SOLVING FOR HEAD 
                                                   Max.-Head-Change                         Max.-Flux-Residual
  Residual-Control   Outer-Iter.   Inner-Iter.     Column Row Layer    Maximum-Head-Change  Column Row Layer    Maximum-Flux-Residual          L2-NORM 
          0                 1           3            67    1     1      -0.1155331061E+00      67    1    1        -0.2722172450E-02      0.4501428184E-01
          0                 2           2            67    1     1       0.1050707601E-01      67    1    1         0.2721484392E-03      0.4403638325E-02
          0                 3           2            67    7     1      -0.8650511340E-03      71    4    1         0.2561970941E-04      0.4186442225E-03
          0                 4           1            66    1     1       0.6366034560E-04      71    4    1        -0.3156446375E-05      0.3663607544E-04
          0                 5           1            65    1     1      -0.4108540527E-05      70    4    1         0.2870695557E-06      0.2781609442E-05
          0                 6           1            65    1     1       0.2315916603E-06      70    4    1        -0.2068514604E-07      0.1804490014E-06

    ------------------------------------------------
       NWT REQUIRED            6 OUTER ITERATIONS 
       AND A TOTAL OF         10 INNER ITERATIONS.
    ------------------------------------------------

 NO OUTPUT CONTROL FOR STRESS PERIOD   15   TIME STEP   24
 
 WELLS WITH REDUCED PUMPING FOR STRESS PERIOD    15 TIME STEP    24
   LAY   ROW   COL         APPL.Q          ACT.Q        GW-HEAD       CELL-BOT
     1     3    50  -0.132999E+01  -0.606943E+00   0.527371E+01   0.000000E+00
     1     5    55  -0.132999E+01  -0.544217E+00   0.487466E+01   0.000000E+00
 
 
 SOLVING FOR HEAD 
                                                   Max.-Head-Change                         Max.-Flux-Residual
  Residual-Control   Outer-Iter.   Inner-Iter.     Column Row Layer    Maximum-Head-Change  Column Row Layer    Maximum-Flux-Residual          L2-NORM 
          0                 1           3            66    1     1      -0.1246709065E+00      67    1    1        -0.2700252716E-02      0.4451377138E-01
          0                 2           2            66    1     1       0.1129392719E-01      67    1    1         0.2698668416E-03      0.4354171317E-02
          0                 3           2            65    1     1      -0.9264906730E-03      68    4    1         0.2636439613E-04      0.4146156153E-03
          0                 4           1            65    1     1       0.6799103765E-04      68    4    1        -0.3223361629E-05      0.3639152732E-04
          0                 5           1            65    1     1      -0.4371453754E-05      68    4    1         0.2928976368E-06      0.2760689062E-05
          0                 6           1            65    1     1       0.2447580666E-06      68    4    1        -0.2103191399E-07      0.1790738405E-06

    ------------------------------------------------
       NWT REQUIRED            6 OUTER ITERATIONS 
       AND A TOTAL OF         10 INNER ITERATIONS.
    ------------------------------------------------

 NO OUTPUT CONTROL FOR STRESS PERIOD   15   TIME STEP   25
 
 WELLS WITH REDUCED PUMPING FOR STRESS PERIOD    15 TIME STEP    25
   LAY   ROW   COL         APPL.Q          ACT.Q        GW-HEAD       CELL-BOT
     1     3    50  -0.133001E+01  -0.604207E+00   0.525825E+01   0.000000E+00
     1     5    55  -0.133001E+01  -0.541299E+00   0.485812E+01   0.000000E+00
 
 
 SOLVING FOR HEAD 
                                                   Max.-Head-Change                         Max.-Flux-Residual
  Residual-Control   Outer-Iter.   Inner-Iter.     Column Row Layer    Maximum-Head-Change  Column Row Layer    Maximum-Flux-Residual          L2-NORM 
          0                 1           3            67    1     1      -0.1334694386E+00      66    1    1        -0.2649772857E-02      0.4400658894E-01
          0                 2           2            67    1     1       0.1204194724E-01      66    1    1         0.2647785725E-03      0.4304653123E-02
          0                 3           2            65    1     1      -0.9816128124E-03      66    4    1         0.2651910155E-04      0.4104964820E-03
          0                 4           1            64    1     1       0.7168751326E-04      66    4    1        -0.3258443982E-05      0.3612557481E-04
          0                 5           1            63    1     1      -0.4582011577E-05      66    4    1         0.2963125780E-06      0.2733851186E-05
          0                 6           1            63    1     1       0.2567154393E-06      66    4    1        -0.2128042098E-07      0.1771357448E-06

    ------------------------------------------------
       NWT REQUIRED            6 OUTER ITERATIONS 
       AND A TOTAL OF         10 INNER ITERATIONS.
    ------------------------------------------------

 NO OUTPUT CONTROL FOR STRESS PERIOD   15   TIME STEP   26
 
 WELLS WITH REDUCED PUMPING FOR STRESS PERIOD    15 TIME STEP    26
   LAY   ROW   COL         APPL.Q          ACT.Q        GW-HEAD       CELL-BOT
     1     3    50  -0.133001E+01  -0.601269E+00   0.524170E+01   0.000000E+00
     1     5    55  -0.133001E+01  -0.538167E+00   0.484043E+01   0.000000E+00
 
 
 SOLVING FOR HEAD 
                                                   Max.-Head-Change                         Max.-Flux-Residual
  Residual-Control   Outer-Iter.   Inner-Iter.     Column Row Layer    Maximum-Head-Change  Column Row Layer    Maximum-Flux-Residual          L2-NORM 
          0                 1           3            68    1     1      -0.1452613333E+00      67    1    1        -0.2579753351E-02      0.4349406705E-01
          0                 2           2            68    7     1       0.1305881885E-01      67    1    1         0.2578665859E-03      0.4255373256E-02
          0                 3           2            68    7     1      -0.1058461164E-02      63    4    1         0.2636841319E-04      0.4061921601E-03
          0                 4           1            67    1     1       0.7648441513E-04      63    4    1        -0.3196675666E-05      0.3582274831E-04
          0                 5           1            65    1     1      -0.4787945725E-05      64    4    1         0.2824087240E-06      0.2700383858E-05
          0                 6           1            63    1     1       0.2653792053E-06      66    4    1        -0.2043954161E-07      0.1746548193E-06

    ------------------------------------------------
       NWT REQUIRED            6 OUTER ITERATIONS 
       AND A TOTAL OF         10 INNER ITERATIONS.
    ------------------------------------------------

 NO OUTPUT CONTROL FOR STRESS PERIOD   15   TIME STEP   27
 
 WELLS WITH REDUCED PUMPING FOR STRESS PERIOD    15 TIME STEP    27
   LAY   ROW   COL         APPL.Q          ACT.Q        GW-HEAD       CELL-BOT
     1     3    50  -0.133000E+01  -0.598345E+00   0.522523E+01   0.000000E+00
     1     5    55  -0.133000E+01  -0.535064E+00   0.482288E+01   0.000000E+00
 
 
 SOLVING FOR HEAD 
                                                   Max.-Head-Change                         Max.-Flux-Residual
  Residual-Control   Outer-Iter.   Inner-Iter.     Column Row Layer    Maximum-Head-Change  Column Row Layer    Maximum-Flux-Residual          L2-NORM 
          0                 1           3            68    1     1      -0.1584186049E+00      68    1    1        -0.2553174194E-02      0.4299094034E-01
          0                 2           2            68    7     1       0.1420822407E-01      68    1    1         0.2552250285E-03      0.4201571477E-02
          0                 3           2            68    7     1      -0.1148068029E-02      61    4    1         0.2444691783E-04      0.4011610115E-03
          0                 4           1            72    7     1       0.8271070617E-04      62    4    1        -0.2994988975E-05      0.3544356668E-04
          0                 5           1            67    1     1      -0.5076016311E-05      66    4    1         0.2800626824E-06      0.2656490313E-05
          0                 6           1            65    1     1       0.2750573211E-06      66    4    1        -0.2054768444E-07      0.1713318188E-06

    ------------------------------------------------
       NWT REQUIRED            6 OUTER ITERATIONS 
       AND A TOTAL OF         10 INNER ITERATIONS.
    ------------------------------------------------

 NO OUTPUT CONTROL FOR STRESS PERIOD   15   TIME STEP   28
 
 WELLS WITH REDUCED PUMPING FOR STRESS PERIOD    15 TIME STEP    28
   LAY   ROW   COL         APPL.Q          ACT.Q        GW-HEAD       CELL-BOT
     1     3    50  -0.133000E+01  -0.595116E+00   0.520702E+01   0.000000E+00
     1     5    55  -0.133000E+01  -0.531575E+00   0.480312E+01   0.000000E+00
 
 
 SOLVING FOR HEAD 
                                                   Max.-Head-Change                         Max.-Flux-Residual
  Residual-Control   Outer-Iter.   Inner-Iter.     Column Row Layer    Maximum-Head-Change  Column Row Layer    Maximum-Flux-Residual          L2-NORM 
          0                 1           3            68    1     1      -0.1726926179E+00      68    1    1        -0.2531787557E-02      0.4251680089E-01
          0                 2           3            69    1     1       0.1546249541E-01      68    1    1         0.2530760538E-03      0.4152465777E-02
          0                 3           2            69    7     1      -0.1246250185E-02      68    1    1        -0.2278377870E-04      0.3967064224E-03
          0                 4           1            72    7     1       0.8961369855E-04      65    4    1        -0.2916838357E-05      0.3511307165E-04
          0                 5           1            67    1     1      -0.5405214033E-05      70    4    1         0.2774998560E-06      0.2611892920E-05
          0                 6           1            65    1     1       0.2894319917E-06      70    4    1        -0.2049874581E-07      0.1678538378E-06

    ------------------------------------------------
       NWT REQUIRED            6 OUTER ITERATIONS 
       AND A TOTAL OF         11 INNER ITERATIONS.
    ------------------------------------------------

 NO OUTPUT CONTROL FOR STRESS PERIOD   15   TIME STEP   29
 
 WELLS WITH REDUCED PUMPING FOR STRESS PERIOD    15 TIME STEP    29
   LAY   ROW   COL         APPL.Q          ACT.Q        GW-HEAD       CELL-BOT
     1     3    50  -0.132999E+01  -0.591598E+00   0.518719E+01   0.000000E+00
     1     5    55  -0.132999E+01  -0.527782E+00   0.478164E+01   0.000000E+00
 
 
 SOLVING FOR HEAD 
                                                   Max.-Head-Change                         Max.-Flux-Residual
  Residual-Control   Outer-Iter.   Inner-Iter.     Column Row Layer    Maximum-Head-Change  Column Row Layer    Maximum-Flux-Residual          L2-NORM 
          0                 1           3            69    1     1      -0.1881696938E+00      68    1    1        -0.2509352382E-02      0.4205337830E-01
          0                 2           3            69    1     1       0.1682726975E-01      68    1    1         0.2508192651E-03      0.4104371158E-02
          0                 3           2            72    7     1      -0.1355164575E-02      68    1    1        -0.2258139096E-04      0.3921066174E-03
          0                 4           1            72    7     1       0.9703872261E-04      65    4    1        -0.2909020504E-05      0.3475176211E-04
          0                 5           1            67    1     1      -0.5720257631E-05      70    4    1         0.2783164188E-06      0.2560273125E-05
          0                 6           1            65    1     1       0.3028437280E-06      70    4    1        -0.2053238113E-07      0.1638539666E-06

    ------------------------------------------------
       NWT REQUIRED            6 OUTER ITERATIONS 
       AND A TOTAL OF         11 INNER ITERATIONS.
    ------------------------------------------------

 OUTPUT CONTROL FOR STRESS PERIOD   15   TIME STEP   30
    PRINT HEAD FOR ALL LAYERS
    SAVE HEAD FOR ALL LAYERS
    PRINT BUDGET
    SAVE BUDGET
 
 WELLS WITH REDUCED PUMPING FOR STRESS PERIOD    15 TIME STEP    30
   LAY   ROW   COL         APPL.Q          ACT.Q        GW-HEAD       CELL-BOT
     1     3    50  -0.132999E+01  -0.587880E+00   0.516619E+01   0.000000E+00
     1     5    55  -0.132999E+01  -0.523768E+00   0.475885E+01   0.000000E+00

            WELLS   PERIOD   15   STEP  30
 WELL      1   LAYER   1   ROW     3   COL    50   RATE   -0.587880    
 WELL      2   LAYER   1   ROW     5   COL    55   RATE   -0.523768    
 

  HEAD DEP BOUNDS   PERIOD   15   STEP    30
 BOUNDARY      1   LAYER   1   ROW     1   COL   100   RATE   -1.615518E-02
 BOUNDARY      2   LAYER   1   ROW     2   COL   100   RATE   -1.619882E-02
 BOUNDARY      3   LAYER   1   ROW     3   COL   100   RATE   -1.618752E-02
 BOUNDARY      4   LAYER   1   ROW     4   COL   100   RATE   -1.324256E-02
 BOUNDARY      5   LAYER   1   ROW     5   COL   100   RATE   -1.618752E-02
 BOUNDARY      6   LAYER   1   ROW     6   COL   100   RATE   -1.619882E-02
 BOUNDARY      7   LAYER   1   ROW     7   COL   100   RATE   -1.615518E-02



 STREAM LISTING     PERIOD     15   STEP       30

 LAYER ROW COL. STREAM  RCH.   FLOW INTO    STREAM     FLOW OUT OF   OVRLND.    DIRECT     STREAM      STREAM      STREAM     STREAM  STREAMBED   FLOW TO   CHNG. UNSAT. 
                SEG.NO.  NO.   STRM. RCH.    LOSS       STRM. RCH.   RUNOFF     PRECIP       ET         HEAD        DEPTH      WIDTH  CONDCTNC.   WAT. TAB.

   1    4    1     1     1    6.1800E+00  2.0196E-03   6.1780E+00  0.000E+00  0.000E+00  0.000E+00  1.41732E+02  1.882E+00  4.064E+00  8.478E-04  2.014E-03  1.001E-05
   1    4    2     1     2    6.1780E+00  2.0191E-03   6.1760E+00  0.000E+00  0.000E+00  0.000E+00  1.41432E+02  1.882E+00  4.064E+00  8.477E-04  2.014E-03  1.008E-05
   1    4    3     1     3    6.1760E+00  2.0186E-03   6.1739E+00  0.000E+00  0.000E+00  0.000E+00  1.41131E+02  1.881E+00  4.064E+00  8.476E-04  2.013E-03  1.035E-05
   1    4    4     1     4    6.1739E+00  2.0180E-03   6.1719E+00  0.000E+00  0.000E+00  0.000E+00  1.40831E+02  1.881E+00  4.063E+00  8.475E-04  2.012E-03  1.080E-05
   1    4    5     1     5    6.1719E+00  2.0175E-03   6.1699E+00  0.000E+00  0.000E+00  0.000E+00  1.40531E+02  1.881E+00  4.063E+00  8.474E-04  2.011E-03  1.143E-05
   1    4    6     1     6    6.1699E+00  2.0170E-03   6.1679E+00  0.000E+00  0.000E+00  0.000E+00  1.40231E+02  1.881E+00  4.062E+00  8.473E-04  2.010E-03  1.225E-05
   1    4    7     1     7    6.1679E+00  2.0165E-03   6.1659E+00  0.000E+00  0.000E+00  0.000E+00  1.39930E+02  1.880E+00  4.062E+00  8.472E-04  2.008E-03  1.323E-05
   1    4    8     1     8    6.1659E+00  2.0160E-03   6.1639E+00  0.000E+00  0.000E+00  0.000E+00  1.39630E+02  1.880E+00  4.062E+00  8.471E-04  2.006E-03  1.438E-05
   1    4    9     1     9    6.1639E+00  2.0155E-03   6.1618E+00  0.000E+00  0.000E+00  0.000E+00  1.39330E+02  1.880E+00  4.061E+00  8.470E-04  2.005E-03  1.569E-05
   1    4   10     1    10    6.1618E+00  2.0150E-03   6.1598E+00  0.000E+00  0.000E+00  0.000E+00  1.39029E+02  1.879E+00  4.061E+00  8.469E-04  2.003E-03  1.716E-05
   1    4   11     1    11    6.1598E+00  2.0144E-03   6.1578E+00  0.000E+00  0.000E+00  0.000E+00  1.38729E+02  1.879E+00  4.061E+00  8.468E-04  2.001E-03  1.877E-05
   1    4   12     1    12    6.1578E+00  2.0139E-03   6.1558E+00  0.000E+00  0.000E+00  0.000E+00  1.38429E+02  1.879E+00  4.060E+00  8.467E-04  1.998E-03  2.051E-05
   1    4   13     1    13    6.1558E+00  2.0134E-03   6.1538E+00  0.000E+00  0.000E+00  0.000E+00  1.38128E+02  1.878E+00  4.060E+00  8.466E-04  1.996E-03  2.238E-05
   1    4   14     1    14    6.1538E+00  2.0129E-03   6.1518E+00  0.000E+00  0.000E+00  0.000E+00  1.37828E+02  1.878E+00  4.059E+00  8.465E-04  1.993E-03  2.438E-05
   1    4   15     1    15    6.1518E+00  2.0124E-03   6.1498E+00  0.000E+00  0.000E+00  0.000E+00  1.37528E+02  1.878E+00  4.059E+00  8.464E-04  1.991E-03  2.648E-05
   1    4   16     1    16    6.1498E+00  2.0119E-03   6.1477E+00  0.000E+00  0.000E+00  0.000E+00  1.37227E+02  1.877E+00  4.059E+00  8.463E-04  1.988E-03  2.868E-05
   1    4   17     1    17    6.1477E+00  2.0114E-03   6.1457E+00  0.000E+00  0.000E+00  0.000E+00  1.36927E+02  1.877E+00  4.058E+00  8.462E-04  1.985E-03  3.096E-05
   1    4   18     1    18    6.1457E+00  2.0108E-03   6.1437E+00  0.000E+00  0.000E+00  0.000E+00  1.36627E+02  1.877E+00  4.058E+00  8.461E-04  1.982E-03  3.332E-05
   1    4   19     1    19    6.1437E+00  2.0103E-03   6.1417E+00  0.000E+00  0.000E+00  0.000E+00  1.36326E+02  1.876E+00  4.057E+00  8.460E-04  1.979E-03  3.575E-05
   1    4   20     1    20    6.1417E+00  2.0098E-03   6.1397E+00  0.000E+00  0.000E+00  0.000E+00  1.36026E+02  1.876E+00  4.057E+00  8.458E-04  1.976E-03  3.824E-05
   1    4   21     1    21    6.1397E+00  2.0093E-03   6.1377E+00  0.000E+00  0.000E+00  0.000E+00  1.35726E+02  1.876E+00  4.057E+00  8.457E-04  1.973E-03  4.076E-05
   1    4   22     1    22    6.1377E+00  2.0088E-03   6.1357E+00  0.000E+00  0.000E+00  0.000E+00  1.35425E+02  1.875E+00  4.056E+00  8.456E-04  1.970E-03  4.332E-05
   1    4   23     1    23    6.1357E+00  2.0083E-03   6.1337E+00  0.000E+00  0.000E+00  0.000E+00  1.35125E+02  1.875E+00  4.056E+00  8.455E-04  1.967E-03  4.591E-05
   1    4   24     1    24    6.1337E+00  2.0078E-03   6.1317E+00  0.000E+00  0.000E+00  0.000E+00  1.34825E+02  1.875E+00  4.056E+00  8.454E-04  1.964E-03  4.849E-05
   1    4   25     1    25    6.1317E+00  2.0073E-03   6.1297E+00  0.000E+00  0.000E+00  0.000E+00  1.34525E+02  1.875E+00  4.055E+00  8.453E-04  1.961E-03  5.108E-05
   1    4   26     1    26    6.1297E+00  2.0067E-03   6.1277E+00  0.000E+00  0.000E+00  0.000E+00  1.34224E+02  1.874E+00  4.055E+00  8.452E-04  1.958E-03  5.365E-05
   1    4   27     1    27    6.1277E+00  2.0062E-03   6.1257E+00  0.000E+00  0.000E+00  0.000E+00  1.33924E+02  1.874E+00  4.054E+00  8.451E-04  1.955E-03  5.619E-05
   1    4   28     1    28    6.1257E+00  2.0057E-03   6.1236E+00  0.000E+00  0.000E+00  0.000E+00  1.33624E+02  1.874E+00  4.054E+00  8.450E-04  1.952E-03  5.869E-05
   1    4   29     1    29    6.1236E+00  2.0052E-03   6.1216E+00  0.000E+00  0.000E+00  0.000E+00  1.33323E+02  1.873E+00  4.054E+00  8.449E-04  1.949E-03  6.113E-05
   1    4   30     1    30    6.1216E+00  2.0047E-03   6.1196E+00  0.000E+00  0.000E+00  0.000E+00  1.33023E+02  1.873E+00  4.053E+00  8.448E-04  1.946E-03  6.350E-05
   1    4   31     1    31    6.1196E+00  2.0042E-03   6.1176E+00  0.000E+00  0.000E+00  0.000E+00  1.32723E+02  1.873E+00  4.053E+00  8.447E-04  1.943E-03  6.576E-05
   1    4   32     1    32    6.1176E+00  2.0037E-03   6.1156E+00  0.000E+00  0.000E+00  0.000E+00  1.32422E+02  1.872E+00  4.053E+00  8.446E-04  1.941E-03  6.790E-05
   1    4   33     1    33    6.1156E+00  2.0032E-03   6.1136E+00  0.000E+00  0.000E+00  0.000E+00  1.32122E+02  1.872E+00  4.052E+00  8.445E-04  1.938E-03  6.989E-05
   1    4   34     1    34    6.1136E+00  2.0026E-03   6.1116E+00  0.000E+00  0.000E+00  0.000E+00  1.31822E+02  1.872E+00  4.052E+00  8.444E-04  1.936E-03  7.168E-05
   1    4   35     1    35    6.1116E+00  2.0021E-03   6.1096E+00  0.000E+00  0.000E+00  0.000E+00  1.31521E+02  1.871E+00  4.051E+00  8.443E-04  1.934E-03  7.324E-05
   1    4   36     1    36    6.1096E+00  2.0016E-03   6.1076E+00  0.000E+00  0.000E+00  0.000E+00  1.31221E+02  1.871E+00  4.051E+00  8.442E-04  1.957E-03  4.915E-05
   1    4   37     1    37    6.1076E+00  2.0011E-03   6.1056E+00  0.000E+00  0.000E+00  0.000E+00  1.30921E+02  1.871E+00  4.051E+00  8.441E-04  1.956E-03  5.023E-05
   1    4   38     1    38    6.1056E+00  2.0006E-03   6.1036E+00  0.000E+00  0.000E+00  0.000E+00  1.30620E+02  1.870E+00  4.050E+00  8.440E-04  1.955E-03  5.086E-05
   1    4   39     1    39    6.1036E+00  2.0001E-03   6.1016E+00  0.000E+00  0.000E+00  0.000E+00  1.30320E+02  1.870E+00  4.050E+00  8.439E-04  1.965E-03  3.968E-05
   1    4   40     1    40    6.1016E+00  1.9996E-03   6.0996E+00  0.000E+00  0.000E+00  0.000E+00  1.30020E+02  1.870E+00  4.050E+00  8.438E-04  1.990E-03  1.443E-05
   1    4   41     1    41    6.0996E+00  1.9991E-03   6.0976E+00  0.000E+00  0.000E+00  0.000E+00  1.29719E+02  1.869E+00  4.049E+00  8.437E-04  1.991E-03  1.293E-05
   1    4   42     1    42    6.0976E+00  1.9986E-03   6.0956E+00  0.000E+00  0.000E+00  0.000E+00  1.29419E+02  1.869E+00  4.049E+00  8.436E-04  2.024E-03 -2.037E-05
   1    4   43     1    43    6.0956E+00  1.9981E-03   6.0936E+00  0.000E+00  0.000E+00  0.000E+00  1.29119E+02  1.869E+00  4.048E+00  8.435E-04  2.038E-03 -3.482E-05
   1    4   44     1    44    6.0936E+00  1.9975E-03   6.0916E+00  0.000E+00  0.000E+00  0.000E+00  1.28819E+02  1.869E+00  4.048E+00  8.434E-04  2.043E-03 -4.033E-05
   1    4   45     1    45    6.0916E+00  1.9970E-03   6.0896E+00  0.000E+00  0.000E+00  0.000E+00  1.28518E+02  1.868E+00  4.048E+00  8.433E-04  2.050E-03 -4.776E-05
   1    4   46     1    46    6.0896E+00  1.9965E-03   6.0876E+00  0.000E+00  0.000E+00  0.000E+00  1.28218E+02  1.868E+00  4.047E+00  8.432E-04  2.060E-03 -5.859E-05
   1    4   47     1    47    6.0876E+00  1.9960E-03   6.0856E+00  0.000E+00  0.000E+00  0.000E+00  1.27918E+02  1.868E+00  4.047E+00  8.431E-04  2.112E-03 -1.108E-04
   1    4   48     1    48    6.0856E+00  1.9955E-03   6.0836E+00  0.000E+00  0.000E+00  0.000E+00  1.27617E+02  1.867E+00  4.047E+00  8.430E-04  1.732E-03  2.683E-04
   1    4   49     1    49    6.0836E+00  1.9950E-03   6.0816E+00  0.000E+00  0.000E+00  0.000E+00  1.27317E+02  1.867E+00  4.046E+00  8.429E-04  1.464E-03  5.357E-04
   1    4   50     1    50    6.0816E+00  1.9945E-03   6.0796E+00  0.000E+00  0.000E+00  0.000E+00  1.27017E+02  1.867E+00  4.046E+00  8.428E-04  1.493E-03  5.061E-04
   1    4   51     1    51    6.0796E+00  1.9940E-03   6.0777E+00  0.000E+00  0.000E+00  0.000E+00  1.26716E+02  1.866E+00  4.045E+00  8.427E-04  1.472E-03  5.272E-04
   1    4   52     1    52    6.0777E+00  1.9935E-03   6.0757E+00  0.000E+00  0.000E+00  0.000E+00  1.26416E+02  1.866E+00  4.045E+00  8.426E-04  1.460E-03  5.387E-04
   1    4   53     1    53    6.0757E+00  1.9930E-03   6.0737E+00  0.000E+00  0.000E+00  0.000E+00  1.26116E+02  1.866E+00  4.045E+00  8.424E-04  1.457E-03  5.409E-04
   1    4   54     1    54    6.0737E+00  1.9924E-03   6.0717E+00  0.000E+00  0.000E+00  0.000E+00  1.25815E+02  1.865E+00  4.044E+00  8.423E-04  1.464E-03  5.335E-04
   1    4   55     1    55    6.0717E+00  1.9919E-03   6.0697E+00  0.000E+00  0.000E+00  0.000E+00  1.25515E+02  1.865E+00  4.044E+00  8.422E-04  1.482E-03  5.149E-04
   1    4   56     1    56    6.0697E+00  1.9914E-03   6.0677E+00  0.000E+00  0.000E+00  0.000E+00  1.25215E+02  1.865E+00  4.044E+00  8.421E-04  1.444E-03  5.522E-04
   1    4   57     1    57    6.0677E+00  1.9909E-03   6.0657E+00  0.000E+00  0.000E+00  0.000E+00  1.24914E+02  1.864E+00  4.043E+00  8.420E-04  1.736E-03  2.600E-04
   1    4   58     1    58    6.0657E+00  1.9904E-03   6.0637E+00  0.000E+00  0.000E+00  0.000E+00  1.24614E+02  1.864E+00  4.043E+00  8.419E-04  2.081E-03 -8.528E-05
   1    4   59     1    59    6.0637E+00  1.9899E-03   6.0617E+00  0.000E+00  0.000E+00  0.000E+00  1.24314E+02  1.864E+00  4.042E+00  8.418E-04  2.061E-03 -6.617E-05
   1    4   60     1    60    6.0617E+00  1.9894E-03   6.0597E+00  0.000E+00  0.000E+00  0.000E+00  1.24013E+02  1.863E+00  4.042E+00  8.417E-04  2.013E-03 -1.818E-05
   1    4   61     1    61    6.0597E+00  1.9889E-03   6.0577E+00  0.000E+00  0.000E+00  0.000E+00  1.23713E+02  1.863E+00  4.042E+00  8.416E-04  2.002E-03 -7.820E-06
   1    4   62     1    62    6.0577E+00  1.9884E-03   6.0558E+00  0.000E+00  0.000E+00  0.000E+00  1.23413E+02  1.863E+00  4.041E+00  8.415E-04  1.993E-03  3.188E-07
   1    4   63     1    63    6.0558E+00  1.9879E-03   6.0538E+00  0.000E+00  0.000E+00  0.000E+00  1.23113E+02  1.863E+00  4.041E+00  8.414E-04  1.948E-03  4.470E-05
   1    4   64     1    64    6.0538E+00  1.9874E-03   6.0518E+00  0.000E+00  0.000E+00  0.000E+00  1.22812E+02  1.862E+00  4.040E+00  8.413E-04  1.941E-03  5.091E-05
   1    4   65     1    65    6.0518E+00  1.9869E-03   6.0498E+00  0.000E+00  0.000E+00  0.000E+00  1.22512E+02  1.862E+00  4.040E+00  8.412E-04  1.938E-03  5.433E-05
   1    4   66     1    66    6.0498E+00  1.9863E-03   6.0478E+00  0.000E+00  0.000E+00  0.000E+00  1.22212E+02  1.862E+00  4.040E+00  8.411E-04  1.902E-03  8.969E-05
   1    4   67     1    67    6.0478E+00  1.9858E-03   6.0458E+00  0.000E+00  0.000E+00  0.000E+00  1.21911E+02  1.861E+00  4.039E+00  8.410E-04  1.900E-03  9.094E-05
   1    4   68     1    68    6.0458E+00  1.9853E-03   6.0438E+00  0.000E+00  0.000E+00  0.000E+00  1.21611E+02  1.861E+00  4.039E+00  8.409E-04  1.899E-03  9.158E-05
   1    4   69     1    69    6.0438E+00  1.9848E-03   6.0419E+00  0.000E+00  0.000E+00  0.000E+00  1.21311E+02  1.861E+00  4.039E+00  8.408E-04  1.898E-03  9.161E-05
   1    4   70     1    70    6.0419E+00  1.9843E-03   6.0399E+00  0.000E+00  0.000E+00  0.000E+00  1.21010E+02  1.860E+00  4.038E+00  8.407E-04  1.898E-03  9.109E-05
   1    4   71     1    71    6.0399E+00  1.9838E-03   6.0379E+00  0.000E+00  0.000E+00  0.000E+00  1.20710E+02  1.860E+00  4.038E+00  8.406E-04  1.898E-03  9.006E-05
   1    4   72     1    72    6.0379E+00  1.9833E-03   6.0359E+00  0.000E+00  0.000E+00  0.000E+00  1.20410E+02  1.860E+00  4.037E+00  8.405E-04  1.885E-03  1.026E-04
   1    4   73     1    73    6.0359E+00  1.9828E-03   6.0339E+00  0.000E+00  0.000E+00  0.000E+00  1.20109E+02  1.859E+00  4.037E+00  8.404E-04  1.886E-03  9.689E-05
   1    4   74     1    74    6.0339E+00  1.9823E-03   6.0319E+00  0.000E+00  0.000E+00  0.000E+00  1.19809E+02  1.859E+00  4.037E+00  8.403E-04  1.887E-03  9.505E-05
   1    4   75     1    75    6.0319E+00  1.9818E-03   6.0300E+00  0.000E+00  0.000E+00  0.000E+00  1.19509E+02  1.859E+00  4.036E+00  8.402E-04  1.889E-03  9.288E-05
   1    4   76     1    76    6.0300E+00  1.9813E-03   6.0280E+00  0.000E+00  0.000E+00  0.000E+00  1.19208E+02  1.858E+00  4.036E+00  8.401E-04  1.891E-03  9.041E-05
   1    4   77     1    77    6.0280E+00  1.9808E-03   6.0260E+00  0.000E+00  0.000E+00  0.000E+00  1.18908E+02  1.858E+00  4.036E+00  8.400E-04  1.893E-03  8.763E-05
   1    4   78     1    78    6.0260E+00  1.9803E-03   6.0240E+00  0.000E+00  0.000E+00  0.000E+00  1.18608E+02  1.858E+00  4.035E+00  8.399E-04  1.896E-03  8.456E-05
   1    4   79     1    79    6.0240E+00  1.9798E-03   6.0220E+00  0.000E+00  0.000E+00  0.000E+00  1.18307E+02  1.857E+00  4.035E+00  8.398E-04  1.899E-03  8.119E-05
   1    4   80     1    80    6.0220E+00  1.9792E-03   6.0201E+00  0.000E+00  0.000E+00  0.000E+00  1.18007E+02  1.857E+00  4.034E+00  8.397E-04  1.902E-03  7.753E-05
   1    4   81     1    81    6.0201E+00  1.9787E-03   6.0181E+00  0.000E+00  0.000E+00  0.000E+00  1.17707E+02  1.857E+00  4.034E+00  8.396E-04  1.905E-03  7.356E-05
   1    4   82     1    82    6.0181E+00  1.9782E-03   6.0161E+00  0.000E+00  0.000E+00  0.000E+00  1.17407E+02  1.857E+00  4.034E+00  8.395E-04  1.909E-03  6.931E-05
   1    4   83     1    83    6.0161E+00  1.9777E-03   6.0141E+00  0.000E+00  0.000E+00  0.000E+00  1.17106E+02  1.856E+00  4.033E+00  8.394E-04  1.913E-03  6.475E-05
   1    4   84     1    84    6.0141E+00  1.9772E-03   6.0121E+00  0.000E+00  0.000E+00  0.000E+00  1.16806E+02  1.856E+00  4.033E+00  8.393E-04  1.917E-03  5.990E-05
   1    4   85     1    85    6.0121E+00  1.9767E-03   6.0102E+00  0.000E+00  0.000E+00  0.000E+00  1.16506E+02  1.856E+00  4.033E+00  8.392E-04  1.922E-03  5.475E-05
   1    4   86     1    86    6.0102E+00  1.9762E-03   6.0082E+00  0.000E+00  0.000E+00  0.000E+00  1.16205E+02  1.855E+00  4.032E+00  8.391E-04  1.927E-03  4.930E-05
   1    4   87     1    87    6.0082E+00  1.9757E-03   6.0062E+00  0.000E+00  0.000E+00  0.000E+00  1.15905E+02  1.855E+00  4.032E+00  8.390E-04  1.935E-03  4.028E-05
   1    4   88     1    88    6.0062E+00  1.9752E-03   6.0042E+00  0.000E+00  0.000E+00  0.000E+00  1.15605E+02  1.855E+00  4.031E+00  8.389E-04  1.942E-03  3.333E-05
   1    4   89     1    89    6.0042E+00  1.9747E-03   6.0023E+00  0.000E+00  0.000E+00  0.000E+00  1.15304E+02  1.854E+00  4.031E+00  8.387E-04  1.949E-03  2.608E-05
   1    4   90     1    90    6.0023E+00  1.9742E-03   6.0003E+00  0.000E+00  0.000E+00  0.000E+00  1.15004E+02  1.854E+00  4.031E+00  8.386E-04  1.956E-03  1.854E-05
   1    4   91     1    91    6.0003E+00  1.9737E-03   5.9983E+00  0.000E+00  0.000E+00  0.000E+00  1.14704E+02  1.854E+00  4.030E+00  8.385E-04  1.963E-03  1.075E-05
   1    4   92     1    92    5.9983E+00  1.9732E-03   5.9963E+00  0.000E+00  0.000E+00  0.000E+00  1.14403E+02  1.853E+00  4.030E+00  8.384E-04  1.970E-03  2.714E-06
   1    4   93     1    93    5.9963E+00  1.9727E-03   5.9944E+00  0.000E+00  0.000E+00  0.000E+00  1.14103E+02  1.853E+00  4.030E+00  8.383E-04  1.978E-03 -5.525E-06
   1    4   94     1    94    5.9944E+00  1.9722E-03   5.9924E+00  0.000E+00  0.000E+00  0.000E+00  1.13803E+02  1.853E+00  4.029E+00  8.382E-04  1.986E-03 -1.394E-05
   1    4   95     1    95    5.9924E+00  1.9717E-03   5.9904E+00  0.000E+00  0.000E+00  0.000E+00  1.13502E+02  1.852E+00  4.029E+00  8.381E-04  1.994E-03 -2.249E-05
   1    4   96     1    96    5.9904E+00  1.9712E-03   5.9885E+00  0.000E+00  0.000E+00  0.000E+00  1.13202E+02  1.852E+00  4.028E+00  8.380E-04  2.002E-03 -3.115E-05
   1    4   97     1    97    5.9885E+00  1.9707E-03   5.9865E+00  0.000E+00  0.000E+00  0.000E+00  1.12902E+02  1.852E+00  4.028E+00  8.379E-04  2.011E-03 -3.990E-05
   1    4   98     1    98    5.9865E+00  1.9701E-03   5.9845E+00  0.000E+00  0.000E+00  0.000E+00  1.12602E+02  1.852E+00  4.028E+00  8.378E-04  2.019E-03 -4.874E-05
   1    4   99     1    99    5.9845E+00  1.9696E-03   5.9825E+00  0.000E+00  0.000E+00  0.000E+00  1.12301E+02  1.851E+00  4.027E+00  8.377E-04  2.027E-03 -5.766E-05
   1    4  100     1   100    5.9825E+00  1.9691E-03   5.9806E+00  0.000E+00  0.000E+00  0.000E+00  1.12001E+02  1.851E+00  4.027E+00  8.376E-04  2.036E-03 -6.671E-05



1
  VOLUMETRIC BUDGET FOR UNSATURATED ZONE BENEATH STREAMS AT END OF TIME STEP    30 STRESS PERIOD  15
  ------------------------------------------------------------------------------------------------

    CUMULATIVE VOLUMES             L**3    RATES FOR THIS TIME STEP         L**3/T
    ------------------                     ------------------------


          STREAM LOSS =     14049331.0000            STREAM LOSS =            0.1994
    CHANGE IN STORAGE =      1242122.6250      CHANGE IN STORAGE =        7.5019E-03
       RECHARGE TO GW =     12811936.0000         RECHARGE TO GW =            0.1923

             TOTAL IN =     14049331.0000               TOTAL IN =            0.1994

            TOTAL OUT =     14054059.0000              TOTAL OUT =            0.1998

             IN - OUT =        -4728.0000               IN - OUT =       -3.5405E-04

  PERCENT DISCREPANCY =           -0.01      PERCENT DISCREPANCY =            -0.04



1
              HEAD IN LAYER 1 AT END OF TIME STEP 30 IN STRESS PERIOD 15
  ---------------------------------------------------------------------------

          1      2      3      4      5      6      7      8      9     10
         11     12     13     14     15     16     17     18     19     20
         21     22     23     24     25     26     27     28     29     30
         31     32     33     34     35     36     37     38     39     40
         41     42     43     44     45     46     47     48     49     50
         51     52     53     54     55     56     57     58     59     60
         61     62     63     64     65     66     67     68     69     70
         71     72     73     74     75     76     77     78     79     80
         81     82     83     84     85     86     87     88     89     90
         91     92     93     94     95     96     97     98     99    100
 .........................................................................
   1  104.0 104.0 103.9 103.8 103.7 103.5 103.3 103.0 102.8 102.5
      102.1 101.7 101.3 100.8 100.3 99.7 99.1 98.4 97.7 97.0
      96.2 95.3 94.4 93.4 92.3 91.2 90.0 88.7 87.4 85.9
      84.4 82.8 81.1 79.2 77.3 75.2 73.0 70.6 68.1 65.3
      62.4 59.2 55.8 52.0 47.9 43.2 37.9 31.6 24.0 15.4
      14.6 15.2 15.7 16.6 19.1 24.5 30.2 35.5 40.1 44.3
      48.0 51.3 54.4 57.1 59.6 61.9 64.1 66.0 67.7 69.4
      70.8 72.2 73.4 74.5 75.5 76.3 77.1 77.8 78.4 78.9
      79.3 79.6 79.8 80.0 80.1 80.1 80.1 80.0 79.8 79.6
      79.3 79.0 78.6 78.2 77.7 77.2 76.7 76.2 75.6 75.0
   2  104.0 104.0 103.9 103.8 103.7 103.5 103.3 103.0 102.8 102.5
      102.1 101.7 101.3 100.8 100.3 99.7 99.1 98.4 97.7 97.0
      96.2 95.3 94.4 93.4 92.3 91.2 90.0 88.7 87.4 85.9
      84.4 82.8 81.1 79.2 77.3 75.2 73.0 70.6 68.1 65.3
      62.4 59.2 55.8 52.0 47.9 43.2 37.9 31.6 23.6 12.8
      14.3 15.2 15.6 16.2 18.2 24.1 30.1 35.4 40.1 44.3
      48.0 51.3 54.4 57.1 59.6 61.9 64.1 66.0 67.8 69.4
      70.8 72.2 73.4 74.5 75.5 76.3 77.1 77.8 78.4 78.9
      79.3 79.6 79.8 80.0 80.1 80.1 80.1 80.0 79.8 79.6
      79.3 79.0 78.6 78.2 77.7 77.3 76.7 76.2 75.6 75.0
   3  104.0 104.0 103.9 103.8 103.7 103.5 103.3 103.1 102.8 102.5
      102.1 101.7 101.3 100.8 100.3 99.7 99.1 98.4 97.7 97.0
      96.2 95.3 94.4 93.4 92.3 91.2 90.0 88.7 87.4 85.9
      84.4 82.8 81.1 79.2 77.3 75.2 73.0 70.6 68.1 65.3
      62.4 59.2 55.8 52.0 47.9 43.3 38.0 31.7 23.3 5.2
      14.0 15.2 15.4 15.3 16.0 23.4 29.9 35.4 40.1 44.3
      48.0 51.3 54.4 57.1 59.7 62.0 64.1 66.0 67.8 69.4
      70.8 72.2 73.4 74.5 75.5 76.3 77.1 77.8 78.4 78.9
      79.3 79.6 79.8 80.0 80.1 80.1 80.1 80.0 79.8 79.6
      79.3 79.0 78.6 78.2 77.7 77.3 76.7 76.2 75.6 75.0
   4  104.0 104.0 103.9 103.8 103.7 103.5 103.3 103.1 102.8 102.5
      102.1 101.7 101.3 100.8 100.3 99.7 99.1 98.4 97.7 97.0
      96.2 95.3 94.4 93.4 92.3 91.2 90.0 88.7 87.4 85.9
      84.4 82.8 81.1 79.2 77.3 75.2 73.0 70.6 68.1 65.3
      62.4 59.2 55.8 52.0 47.9 43.3 38.0 31.9 24.2 13.0
      14.9 15.4 15.2 14.4 12.2 22.5 29.7 35.3 40.1 44.3
      48.0 51.4 54.4 57.1 59.7 62.0 64.1 66.0 67.8 69.4
      70.8 72.2 73.4 74.5 75.5 76.3 77.1 77.8 78.4 78.9
      79.3 79.6 79.8 80.0 80.1 80.1 80.1 80.0 79.8 79.6
      79.3 79.0 78.6 78.2 77.8 77.3 76.7 76.2 75.6 75.0
   5  104.0 104.0 103.9 103.8 103.7 103.5 103.3 103.1 102.8 102.5
      102.1 101.7 101.3 100.8 100.3 99.7 99.1 98.4 97.7 97.0
      96.2 95.3 94.4 93.4 92.3 91.2 90.0 88.7 87.4 85.9
      84.4 82.8 81.1 79.2 77.3 75.2 73.0 70.6 68.1 65.3
      62.4 59.2 55.8 52.0 47.9 43.3 38.1 32.1 25.0 17.0
      15.9 15.6 15.1 13.5 4.8 21.8 29.5 35.3 40.1 44.3
      48.0 51.3 54.4 57.1 59.7 62.0 64.1 66.0 67.8 69.4
      70.8 72.2 73.4 74.5 75.5 76.3 77.1 77.8 78.4 78.9
      79.3 79.6 79.8 80.0 80.1 80.1 80.1 80.0 79.8 79.6
      79.3 79.0 78.6 78.2 77.7 77.3 76.7 76.2 75.6 75.0
   6  104.0 104.0 103.9 103.8 103.7 103.5 103.3 103.0 102.8 102.5
      102.1 101.7 101.3 100.8 100.3 99.7 99.1 98.4 97.7 97.0
      96.2 95.3 94.4 93.4 92.3 91.2 90.0 88.7 87.4 85.9
      84.4 82.8 81.1 79.2 77.3 75.2 73.0 70.6 68.1 65.3
      62.4 59.2 55.8 52.0 47.9 43.3 38.2 32.3 25.8 19.3
      16.8 15.8 15.1 13.8 12.0 22.0 29.4 35.2 40.0 44.3
      48.0 51.3 54.4 57.1 59.6 61.9 64.1 66.0 67.8 69.4
      70.8 72.2 73.4 74.5 75.5 76.3 77.1 77.8 78.4 78.9
      79.3 79.6 79.8 80.0 80.1 80.1 80.1 80.0 79.8 79.6
      79.3 79.0 78.6 78.2 77.7 77.3 76.7 76.2 75.6 75.0
   7  104.0 104.0 103.9 103.8 103.7 103.5 103.3 103.0 102.8 102.5
      102.1 101.7 101.3 100.8 100.3 99.7 99.1 98.4 97.7 97.0
      96.2 95.3 94.4 93.4 92.3 91.2 90.0 88.7 87.4 85.9
      84.4 82.8 81.1 79.2 77.3 75.2 73.0 70.6 68.1 65.3
      62.4 59.2 55.8 52.0 47.9 43.3 38.2 32.5 26.2 20.3
      17.3 16.0 15.1 14.1 14.4 22.4 29.4 35.2 40.0 44.2
      48.0 51.3 54.4 57.1 59.6 61.9 64.1 66.0 67.7 69.4
      70.8 72.2 73.4 74.5 75.5 76.3 77.1 77.8 78.4 78.9
      79.3 79.6 79.8 80.0 80.1 80.1 80.1 80.0 79.8 79.6
      79.3 79.0 78.6 78.2 77.7 77.2 76.7 76.2 75.6 75.0

 HEAD WILL BE SAVED ON UNIT   51 AT END OF TIME STEP   30, STRESS PERIOD   15
1
  VOLUMETRIC BUDGET FOR ENTIRE MODEL AT END OF TIME STEP   30, STRESS PERIOD  15
  ------------------------------------------------------------------------------

     CUMULATIVE VOLUMES      L**3       RATES FOR THIS TIME STEP      L**3/T
     ------------------                 ------------------------

           IN:                                      IN:
           ---                                      ---
             STORAGE     =    75558488.0000               STORAGE     =           1.0297
       CONSTANT HEAD     =           0.0000         CONSTANT HEAD     =           0.0000
               WELLS     =           0.0000                 WELLS     =           0.0000
     HEAD DEP BOUNDS     =           0.0000       HEAD DEP BOUNDS     =           0.0000
      STREAM LEAKAGE     =    12812016.0000        STREAM LEAKAGE     =           0.1923

                TOTAL IN =    88370504.0000                  TOTAL IN =           1.2220

          OUT:                                     OUT:
          ----                                     ----
             STORAGE     =     2210652.0000               STORAGE     =           0.0000
       CONSTANT HEAD     =           0.0000         CONSTANT HEAD     =           0.0000
               WELLS     =    71929584.0000                 WELLS     =           1.1116
     HEAD DEP BOUNDS     =    14230289.0000       HEAD DEP BOUNDS     =           0.1103
      STREAM LEAKAGE     =           0.0000        STREAM LEAKAGE     =           0.0000

               TOTAL OUT =    88370528.0000                 TOTAL OUT =           1.2220

                IN - OUT =         -24.0000                  IN - OUT =      -1.1921E-07

     PERCENT DISCREPANCY =          -0.00         PERCENT DISCREPANCY =          -0.00






         TIME SUMMARY AT END OF TIME STEP   30 IN STRESS PERIOD   15
                    SECONDS     MINUTES      HOURS       DAYS        YEARS
                    -----------------------------------------------------------
   TIME STEP LENGTH 2.49961E+05  4166.0      69.434      2.8931     7.92080E-03
 STRESS PERIOD TIME 2.59200E+06  43200.      720.00      30.000     8.21355E-02
         TOTAL TIME 3.88800E+07 6.48000E+05  10800.      450.00      1.2320    
1
1
                            STRESS PERIOD NO.   16, LENGTH =   2592000.    
                            -----------------------------------------------

                              NUMBER OF TIME STEPS =    30

                               MULTIPLIER FOR DELT =     1.100

                            INITIAL TIME STEP SIZE =   15757.40    

 REUSING NON-PARAMETER WELLS FROM LAST STRESS PERIOD

      1 WELL 

 REUSING NON-PARAMETER GHB CELLS FROM LAST STRESS PERIOD

      7 GHB CELLS



 CLASSIFICATION & COUNT OF STREAM SEGMENTS BASED ON SOURCE OF INFLOW:

                HEADWATER     DIVERSION     RECEIVES TRIBUTARY FLOW
                ---------     ---------     -----------------------
                     1              0               0



                    INPUT DATA FOR EACH STREAM SEGMENT
 ---------------------------------------------------------------------------------------------

 SEGMENT    SEG.     INFLOW   OVERLAND   STREAM    STREAM   ICALC  OUTFLOW  DIVERSION PRIORITY
    NO.    LENGTH     RATE     RUNOFF      ET       PPT.    METH.  TO SEG.  FROM SEG.    NO.

      1  2.000E+04 2.241E+01 0.000E+00 0.000E+00 0.000E+00    2        0        0        0


         STREAMBED PROPERTIES AND STREAM DIMENSIONS

 SEGMENT     BED HYD. COND.      BED THICKNESS     ELEV.-TOP OF BED     WIDTH OF STREAM     DEPTH OF STREAM    STREAM ROUGHNESS
    No.     UPPER     LOWER     UPPER     LOWER     UPPER     LOWER     UPPER     LOWER     UPPER     LOWER   CHANNEL      BANK

     1  3.500E-07 3.500E-07                                                                                 3.000E-02 4.000E-02

  EIGHT POINT CROSS-SECTION DATA FOR SEGMENTS WITH ICALC = 2
    X VALUES X VALUES START FROM LEFT SIDE LOOKING DOWNSTREAM

     SEGMENT NO.        X1        X2        X3        X4        X5        X6        X7        X8
            1      0.000E+00 2.000E+00 4.000E+00 6.000E+00 8.000E+00 1.000E+01 1.200E+01 1.400E+01

    Z VALUES ARE RELATIVE TO STREAMBED ELEVATION

     SEGMENT NO.          Z1        Z2        Z3        Z4        Z5        Z6        Z7        Z8
            1      6.000E+00 4.500E+00 3.500E+00 0.000E+00 3.000E-01 3.500E+00 4.500E+00 6.000E+00



 
 SOLVING FOR HEAD 
                                                   Max.-Head-Change                         Max.-Flux-Residual
  Residual-Control   Outer-Iter.   Inner-Iter.     Column Row Layer    Maximum-Head-Change  Column Row Layer    Maximum-Flux-Residual          L2-NORM 
          0                 1           2            50    3     1       0.5715922833E+00      50    3    1         0.2073180817E+00      0.2807264949E+00
          0                 2           2            50    3     1      -0.5696441989E-01      50    3    1        -0.2113477486E-01      0.2886753059E-01
          0                 3           2            50    3     1       0.5075887942E-02      50    3    1         0.1903058326E-02      0.2598773923E-02
          0                 4           2            50    3     1      -0.4028387735E-03      50    3    1        -0.1524304322E-03      0.2082720731E-03
          0                 5           1            50    3     1       0.2806264028E-04      50    3    1         0.1071574743E-04      0.1464488141E-04
          0                 6           1            50    3     1      -0.1685081531E-05      50    3    1        -0.6493314637E-06      0.8875228653E-06
          0                 7           1            50    3     1       0.8514497292E-07      50    3    1         0.3310946095E-07      0.4525665030E-07

    ------------------------------------------------
       NWT REQUIRED            7 OUTER ITERATIONS 
       AND A TOTAL OF         11 INNER ITERATIONS.
    ------------------------------------------------

 NO OUTPUT CONTROL FOR STRESS PERIOD   16   TIME STEP    1
 
 WELLS WITH REDUCED PUMPING FOR STRESS PERIOD    16 TIME STEP     1
   LAY   ROW   COL         APPL.Q          ACT.Q        GW-HEAD       CELL-BOT
     1     3    50  -0.860281E+00  -0.439993E+00   0.568552E+01   0.000000E+00
     1     5    55  -0.860281E+00  -0.392377E+00   0.522479E+01   0.000000E+00
 
 
 SOLVING FOR HEAD 
                                                   Max.-Head-Change                         Max.-Flux-Residual
  Residual-Control   Outer-Iter.   Inner-Iter.     Column Row Layer    Maximum-Head-Change  Column Row Layer    Maximum-Flux-Residual          L2-NORM 
          0                 1           2            50    3     1       0.3541815982E+00      50    3    1         0.1188216875E+00      0.1656805139E+00
          0                 2           2            50    3     1      -0.3423442770E-01      50    3    1        -0.1187365680E-01      0.1661512457E-01
          0                 3           2            50    3     1       0.3045443606E-02      50    3    1         0.1070057115E-02      0.1499870121E-02
          0                 4           2            50    3     1      -0.2416109828E-03      50    3    1        -0.8570043333E-04      0.1203218006E-03
          0                 5           1            50    3     1       0.1683133621E-04      50    3    1         0.6024730840E-05      0.8466277199E-05
          0                 6           1            50    3     1      -0.1010670148E-05      50    3    1        -0.3650737165E-06      0.5132547770E-06
          0                 7           1            50    3     1       0.5106776738E-07      50    3    1         0.1861511095E-07      0.2617549451E-07

    ------------------------------------------------
       NWT REQUIRED            7 OUTER ITERATIONS 
       AND A TOTAL OF         11 INNER ITERATIONS.
    ------------------------------------------------

 NO OUTPUT CONTROL FOR STRESS PERIOD   16   TIME STEP    2
 
 WELLS WITH REDUCED PUMPING FOR STRESS PERIOD    16 TIME STEP     2
   LAY   ROW   COL         APPL.Q          ACT.Q        GW-HEAD       CELL-BOT
     1     3    50  -0.859943E+00  -0.476911E+00   0.600829E+01   0.000000E+00
     1     5    55  -0.859943E+00  -0.425902E+00   0.551498E+01   0.000000E+00
 
 
 SOLVING FOR HEAD 
                                                   Max.-Head-Change                         Max.-Flux-Residual
  Residual-Control   Outer-Iter.   Inner-Iter.     Column Row Layer    Maximum-Head-Change  Column Row Layer    Maximum-Flux-Residual          L2-NORM 
          0                 1           2            50    3     1       0.2182534787E+00      50    3    1         0.6696758467E-01      0.1013763426E+00
          0                 2           2            50    3     1      -0.2067405708E-01      50    3    1        -0.6657751973E-02      0.9996193420E-02
          0                 3           2            50    3     1       0.1831257044E-02      50    3    1         0.5999204796E-03      0.9056133315E-03
          0                 4           2            50    3     1      -0.1451939820E-03      50    3    1        -0.4804771103E-04      0.7288173025E-04
          0                 5           1            50    3     1       0.1011442403E-04      50    3    1         0.3377745203E-05      0.5138785973E-05
          0                 6           1            50    3     1      -0.6073386409E-06      50    3    1        -0.2046766150E-06      0.3118766595E-06

    ------------------------------------------------
       NWT REQUIRED            6 OUTER ITERATIONS 
       AND A TOTAL OF         10 INNER ITERATIONS.
    ------------------------------------------------

 NO OUTPUT CONTROL FOR STRESS PERIOD   16   TIME STEP    3
 
 WELLS WITH REDUCED PUMPING FOR STRESS PERIOD    16 TIME STEP     3
   LAY   ROW   COL         APPL.Q          ACT.Q        GW-HEAD       CELL-BOT
     1     3    50  -0.860070E+00  -0.499744E+00   0.620756E+01   0.000000E+00
     1     5    55  -0.860070E+00  -0.446719E+00   0.569358E+01   0.000000E+00
 
 
 SOLVING FOR HEAD 
                                                   Max.-Head-Change                         Max.-Flux-Residual
  Residual-Control   Outer-Iter.   Inner-Iter.     Column Row Layer    Maximum-Head-Change  Column Row Layer    Maximum-Flux-Residual          L2-NORM 
          0                 1           2            50    3     1       0.1359029695E+00      50    3    1         0.3769288305E-01      0.6872467937E-01
          0                 2           2            50    3     1      -0.1263806837E-01      50    3    1        -0.3744379910E-02      0.6680013583E-02
          0                 3           2            50    3     1       0.1112546813E-02      50    3    1         0.3373071843E-03      0.6087748910E-03
          0                 4           1            50    3     1      -0.8810985791E-04      50    3    1        -0.2701567917E-04      0.4932519557E-04
          0                 5           1            50    3     1       0.6137197876E-05      50    3    1         0.1899163310E-05      0.3493993021E-05
          0                 6           1            50    3     1      -0.3685183282E-06      50    3    1        -0.1150799883E-06      0.2126133463E-06

    ------------------------------------------------
       NWT REQUIRED            6 OUTER ITERATIONS 
       AND A TOTAL OF          9 INNER ITERATIONS.
    ------------------------------------------------

 NO OUTPUT CONTROL FOR STRESS PERIOD   16   TIME STEP    4
 
 WELLS WITH REDUCED PUMPING FOR STRESS PERIOD    16 TIME STEP     4
   LAY   ROW   COL         APPL.Q          ACT.Q        GW-HEAD       CELL-BOT
     1     3    50  -0.859955E+00  -0.513787E+00   0.633186E+01   0.000000E+00
     1     5    55  -0.859955E+00  -0.459478E+00   0.580404E+01   0.000000E+00
 
 
 SOLVING FOR HEAD 
                                                   Max.-Head-Change                         Max.-Flux-Residual
  Residual-Control   Outer-Iter.   Inner-Iter.     Column Row Layer    Maximum-Head-Change  Column Row Layer    Maximum-Flux-Residual          L2-NORM 
          0                 1           2            50    3     1       0.8607921845E-01      50    3    1         0.2127292003E-01      0.5363501109E-01
          0                 2           2            50    3     1      -0.7848302134E-02      50    3    1        -0.2113042711E-02      0.5176102463E-02
          0                 3           2            50    3     1       0.6855351274E-03      50    3    1         0.1903135136E-03      0.4750716087E-03
          0                 4           1            50    3     1      -0.5419394168E-04      50    3    1        -0.1524292944E-04      0.3884011964E-04
          0                 5           1            50    3     1       0.3773898451E-05      50    3    1         0.1071537706E-05      0.2769521514E-05
          0                 6           1            50    3     1      -0.2266079870E-06      50    3    1        -0.6492898036E-07      0.1692055941E-06

    ------------------------------------------------
       NWT REQUIRED            6 OUTER ITERATIONS 
       AND A TOTAL OF          9 INNER ITERATIONS.
    ------------------------------------------------

 NO OUTPUT CONTROL FOR STRESS PERIOD   16   TIME STEP    5
 
 WELLS WITH REDUCED PUMPING FOR STRESS PERIOD    16 TIME STEP     5
   LAY   ROW   COL         APPL.Q          ACT.Q        GW-HEAD       CELL-BOT
     1     3    50  -0.860059E+00  -0.522762E+00   0.641072E+01   0.000000E+00
     1     5    55  -0.860059E+00  -0.467551E+00   0.587320E+01   0.000000E+00
 
 
 SOLVING FOR HEAD 
                                                   Max.-Head-Change                         Max.-Flux-Residual
  Residual-Control   Outer-Iter.   Inner-Iter.     Column Row Layer    Maximum-Head-Change  Column Row Layer    Maximum-Flux-Residual          L2-NORM 
          0                 1           2            50    2     1       0.5728442286E-01      50    3    1         0.1237256245E-01      0.4722469942E-01
          0                 2           2            50    2     1      -0.5620288163E-02      50    3    1        -0.1228512367E-02      0.4563257886E-02
          0                 3           2            50    2     1       0.4996295259E-03      50    3    1         0.1106393447E-03      0.4211610549E-03
          0                 4           1            50    2     1      -0.3963190957E-04      50    3    1        -0.8861595305E-05      0.3470174158E-04
          0                 5           1            50    2     1       0.2760592751E-05      50    3    1         0.6229327560E-06      0.2489902659E-05
          0                 6           1            50    2     1      -0.1657644962E-06      50    3    1        -0.3774524737E-07      0.1527473477E-06

    ------------------------------------------------
       NWT REQUIRED            6 OUTER ITERATIONS 
       AND A TOTAL OF          9 INNER ITERATIONS.
    ------------------------------------------------

 NO OUTPUT CONTROL FOR STRESS PERIOD   16   TIME STEP    6
 
 WELLS WITH REDUCED PUMPING FOR STRESS PERIOD    16 TIME STEP     6
   LAY   ROW   COL         APPL.Q          ACT.Q        GW-HEAD       CELL-BOT
     1     3    50  -0.859951E+00  -0.528574E+00   0.646293E+01   0.000000E+00
     1     5    55  -0.859951E+00  -0.472699E+00   0.591818E+01   0.000000E+00
 
 
 SOLVING FOR HEAD 
                                                   Max.-Head-Change                         Max.-Flux-Residual
  Residual-Control   Outer-Iter.   Inner-Iter.     Column Row Layer    Maximum-Head-Change  Column Row Layer    Maximum-Flux-Residual          L2-NORM 
          0                 1           2            50    2     1       0.5033902485E-01      50    2    1         0.7394677715E-02      0.4431126261E-01
          0                 2           2            50    2     1      -0.4944177511E-02      50    2    1        -0.7418098575E-03      0.4296503334E-02
          0                 3           2            50    2     1       0.4393714528E-03      50    2    1         0.6673687659E-04      0.3980725288E-03
          0                 4           1            50    2     1      -0.3484676994E-04      50    2    1        -0.5345838717E-05      0.3299660062E-04
          0                 5           1            50    2     1       0.2427147023E-05      50    2    1         0.3758059174E-06      0.2380163548E-05
          0                 6           1            50    2     1      -0.1457406828E-06      50    2    1        -0.2277236075E-07      0.1465758286E-06

    ------------------------------------------------
       NWT REQUIRED            6 OUTER ITERATIONS 
       AND A TOTAL OF          9 INNER ITERATIONS.
    ------------------------------------------------

 NO OUTPUT CONTROL FOR STRESS PERIOD   16   TIME STEP    7
 
 WELLS WITH REDUCED PUMPING FOR STRESS PERIOD    16 TIME STEP     7
   LAY   ROW   COL         APPL.Q          ACT.Q        GW-HEAD       CELL-BOT
     1     3    50  -0.860024E+00  -0.532641E+00   0.649873E+01   0.000000E+00
     1     5    55  -0.860024E+00  -0.476231E+00   0.594837E+01   0.000000E+00
 
 
 SOLVING FOR HEAD 
                                                   Max.-Head-Change                         Max.-Flux-Residual
  Residual-Control   Outer-Iter.   Inner-Iter.     Column Row Layer    Maximum-Head-Change  Column Row Layer    Maximum-Flux-Residual          L2-NORM 
          0                 1           2            50    2     1       0.4387217212E-01      50    2    1         0.5906731947E-02      0.4285899687E-01
          0                 2           2            50    2     1      -0.4310796464E-02      50    2    1        -0.5927372825E-03      0.4166222277E-02
          0                 3           2            50    2     1       0.3829763584E-03      50    2    1         0.5332409241E-04      0.3870955196E-03
          0                 4           1            50    2     1      -0.3036869934E-04      50    2    1        -0.4271442654E-05      0.3224335622E-04
          0                 5           1            50    2     1       0.2115086261E-05      50    2    1         0.3002771196E-06      0.2336835478E-05
          0                 6           1            50    2     1      -0.1270001323E-06      50    2    1        -0.1819561271E-07      0.1444405676E-06

    ------------------------------------------------
       NWT REQUIRED            6 OUTER ITERATIONS 
       AND A TOTAL OF          9 INNER ITERATIONS.
    ------------------------------------------------

 NO OUTPUT CONTROL FOR STRESS PERIOD   16   TIME STEP    8
 
 WELLS WITH REDUCED PUMPING FOR STRESS PERIOD    16 TIME STEP     8
   LAY   ROW   COL         APPL.Q          ACT.Q        GW-HEAD       CELL-BOT
     1     3    50  -0.860036E+00  -0.535555E+00   0.652465E+01   0.000000E+00
     1     5    55  -0.860036E+00  -0.478703E+00   0.596970E+01   0.000000E+00
 
 
 SOLVING FOR HEAD 
                                                   Max.-Head-Change                         Max.-Flux-Residual
  Residual-Control   Outer-Iter.   Inner-Iter.     Column Row Layer    Maximum-Head-Change  Column Row Layer    Maximum-Flux-Residual          L2-NORM 
          0                 1           2            50    2     1       0.3820442675E-01      50    2    1         0.4679722608E-02      0.4202055955E-01
          0                 2           2            50    2     1      -0.3754012612E-02      50    2    1        -0.4695460121E-03      0.4090382648E-02
          0                 3           2            50    2     1       0.3334246870E-03      50    2    1         0.4224237322E-04      0.3809357408E-03
          0                 4           1            50    2     1      -0.2643413621E-04      50    2    1        -0.3383751641E-05      0.3186847688E-04
          0                 5           1            50    2     1       0.1840876691E-05      50    2    1         0.2378735892E-06      0.2320067927E-05
          0                 6           1            50    2     1      -0.1105314475E-06      50    2    1        -0.1441420391E-07      0.1439414913E-06

    ------------------------------------------------
       NWT REQUIRED            6 OUTER ITERATIONS 
       AND A TOTAL OF          9 INNER ITERATIONS.
    ------------------------------------------------

 NO OUTPUT CONTROL FOR STRESS PERIOD   16   TIME STEP    9
 
 WELLS WITH REDUCED PUMPING FOR STRESS PERIOD    16 TIME STEP     9
   LAY   ROW   COL         APPL.Q          ACT.Q        GW-HEAD       CELL-BOT
     1     3    50  -0.859964E+00  -0.537732E+00   0.654450E+01   0.000000E+00
     1     5    55  -0.859964E+00  -0.480502E+00   0.598562E+01   0.000000E+00
 
 
 SOLVING FOR HEAD 
                                                   Max.-Head-Change                         Max.-Flux-Residual
  Residual-Control   Outer-Iter.   Inner-Iter.     Column Row Layer    Maximum-Head-Change  Column Row Layer    Maximum-Flux-Residual          L2-NORM 
          0                 1           2            50    1     1       0.3377092098E-01      50    2    1         0.3704671410E-02      0.4145980992E-01
          0                 2           2            50    1     1      -0.3342617878E-02      50    2    1        -0.3716038790E-03      0.4038407305E-02
          0                 3           2            50    1     1       0.2978083104E-03      50    2    1         0.3343232525E-04      0.3768783334E-03
          0                 4           1            50    1     1      -0.2363098398E-04      50    2    1        -0.2678027920E-05      0.3165888299E-04
          0                 5           1            50    1     1       0.1645616362E-05      50    2    1         0.1882621415E-06      0.2315062273E-05
          0                 6           1            50    1     1      -0.9878746344E-07      70    4    1        -0.1150067419E-07      0.1441872684E-06

    ------------------------------------------------
       NWT REQUIRED            6 OUTER ITERATIONS 
       AND A TOTAL OF          9 INNER ITERATIONS.
    ------------------------------------------------

 NO OUTPUT CONTROL FOR STRESS PERIOD   16   TIME STEP   10
 
 WELLS WITH REDUCED PUMPING FOR STRESS PERIOD    16 TIME STEP    10
   LAY   ROW   COL         APPL.Q          ACT.Q        GW-HEAD       CELL-BOT
     1     3    50  -0.860020E+00  -0.539497E+00   0.655996E+01   0.000000E+00
     1     5    55  -0.860020E+00  -0.481922E+00   0.599765E+01   0.000000E+00
 
 
 SOLVING FOR HEAD 
                                                   Max.-Head-Change                         Max.-Flux-Residual
  Residual-Control   Outer-Iter.   Inner-Iter.     Column Row Layer    Maximum-Head-Change  Column Row Layer    Maximum-Flux-Residual          L2-NORM 
          0                 1           2            50    1     1       0.3191290341E-01      50    1    1         0.2974975232E-02      0.4106171951E-01
          0                 2           2            50    1     1      -0.3159475571E-02      50    1    1        -0.2979754054E-03      0.4000783634E-02
          0                 3           2            50    1     1       0.2814725136E-03      50    1    1         0.2681297502E-04      0.3740796874E-03
          0                 4           1            50    1     1      -0.2233360397E-04      50    1    1        -0.2147758501E-05      0.3154766030E-04
          0                 5           1            50    1     1       0.1555031859E-05      70    4    1         0.1795336164E-06      0.2317090121E-05
          0                 6           1            50    1     1      -0.9333703712E-07      70    4    1        -0.1206649536E-07      0.1448887437E-06

    ------------------------------------------------
       NWT REQUIRED            6 OUTER ITERATIONS 
       AND A TOTAL OF          9 INNER ITERATIONS.
    ------------------------------------------------

 NO OUTPUT CONTROL FOR STRESS PERIOD   16   TIME STEP   11
 
 WELLS WITH REDUCED PUMPING FOR STRESS PERIOD    16 TIME STEP    11
   LAY   ROW   COL         APPL.Q          ACT.Q        GW-HEAD       CELL-BOT
     1     3    50  -0.860028E+00  -0.540906E+00   0.657253E+01   0.000000E+00
     1     5    55  -0.860028E+00  -0.483017E+00   0.600709E+01   0.000000E+00
 
 
 SOLVING FOR HEAD 
                                                   Max.-Head-Change                         Max.-Flux-Residual
  Residual-Control   Outer-Iter.   Inner-Iter.     Column Row Layer    Maximum-Head-Change  Column Row Layer    Maximum-Flux-Residual          L2-NORM 
          0                 1           2            69    1     1      -0.3358053622E-01      50    1    1         0.2555661581E-02      0.4077517677E-01
          0                 2           2            69    1     1       0.3171810405E-02      50    1    1        -0.2560286165E-03      0.3971802615E-02
          0                 3           2            68    1     1      -0.2727122495E-03      50    1    1         0.2303792601E-04      0.3720151649E-03
          0                 4           1            68    1     1       0.2108863051E-04      70    4    1        -0.2146205475E-05      0.3149285473E-04
          0                 5           1            68    1     1      -0.1443036278E-05      70    4    1         0.1863307659E-06      0.2323156050E-05
          0                 6           1            50    1     1      -0.8621446946E-07      70    4    1        -0.1262875493E-07      0.1458608377E-06

    ------------------------------------------------
       NWT REQUIRED            6 OUTER ITERATIONS 
       AND A TOTAL OF          9 INNER ITERATIONS.
    ------------------------------------------------

 NO OUTPUT CONTROL FOR STRESS PERIOD   16   TIME STEP   12
 
 WELLS WITH REDUCED PUMPING FOR STRESS PERIOD    16 TIME STEP    12
   LAY   ROW   COL         APPL.Q          ACT.Q        GW-HEAD       CELL-BOT
     1     3    50  -0.859967E+00  -0.542056E+00   0.658317E+01   0.000000E+00
     1     5    55  -0.859967E+00  -0.483874E+00   0.601481E+01   0.000000E+00
 
 
 SOLVING FOR HEAD 
                                                   Max.-Head-Change                         Max.-Flux-Residual
  Residual-Control   Outer-Iter.   Inner-Iter.     Column Row Layer    Maximum-Head-Change  Column Row Layer    Maximum-Flux-Residual          L2-NORM 
          0                 1           2            69    1     1      -0.3685882141E-01      69    1    1        -0.2455262644E-02      0.4054366067E-01
          0                 2           2            69    1     1       0.3469138473E-02      69    1    1         0.2455177382E-03      0.3947610133E-02
          0                 3           2            71    1     1      -0.2971730294E-03      69    1    1        -0.2209733799E-04      0.3703618798E-03
          0                 4           1            68    1     1       0.2289488354E-04      70    4    1        -0.2202010407E-05      0.3146974402E-04
          0                 5           1            68    1     1      -0.1561696184E-05      70    4    1         0.1929377120E-06      0.2331476176E-05
          0                 6           1            67    1     1       0.9255577215E-07      70    4    1        -0.1318441356E-07      0.1469898819E-06

    ------------------------------------------------
       NWT REQUIRED            6 OUTER ITERATIONS 
       AND A TOTAL OF          9 INNER ITERATIONS.
    ------------------------------------------------

 NO OUTPUT CONTROL FOR STRESS PERIOD   16   TIME STEP   13
 
 WELLS WITH REDUCED PUMPING FOR STRESS PERIOD    16 TIME STEP    13
   LAY   ROW   COL         APPL.Q          ACT.Q        GW-HEAD       CELL-BOT
     1     3    50  -0.859974E+00  -0.543133E+00   0.659278E+01   0.000000E+00
     1     5    55  -0.859974E+00  -0.484701E+00   0.602195E+01   0.000000E+00
 
 
 SOLVING FOR HEAD 
                                                   Max.-Head-Change                         Max.-Flux-Residual
  Residual-Control   Outer-Iter.   Inner-Iter.     Column Row Layer    Maximum-Head-Change  Column Row Layer    Maximum-Flux-Residual          L2-NORM 
          0                 1           2            69    1     1      -0.4044944991E-01      69    1    1        -0.2450716253E-02      0.4032669289E-01
          0                 2           2            69    1     1       0.3793564916E-02      69    1    1         0.2450615922E-03      0.3928184907E-02
          0                 3           2            71    7     1      -0.3240174172E-03      69    1    1        -0.2205640811E-04      0.3691213074E-03
          0                 4           1            68    1     1       0.2484145015E-04      70    4    1        -0.2255052342E-05      0.3147591237E-04
          0                 5           1            68    1     1      -0.1688557672E-05      70    4    1         0.1993257062E-06      0.2341709046E-05
          0                 6           1            67    1     1       0.9980510459E-07      70    4    1        -0.1373041769E-07      0.1482459147E-06

    ------------------------------------------------
       NWT REQUIRED            6 OUTER ITERATIONS 
       AND A TOTAL OF          9 INNER ITERATIONS.
    ------------------------------------------------

 NO OUTPUT CONTROL FOR STRESS PERIOD   16   TIME STEP   14
 
 WELLS WITH REDUCED PUMPING FOR STRESS PERIOD    16 TIME STEP    14
   LAY   ROW   COL         APPL.Q          ACT.Q        GW-HEAD       CELL-BOT
     1     3    50  -0.860018E+00  -0.544100E+00   0.660120E+01   0.000000E+00
     1     5    55  -0.860018E+00  -0.485378E+00   0.602760E+01   0.000000E+00
 
 
 SOLVING FOR HEAD 
                                                   Max.-Head-Change                         Max.-Flux-Residual
  Residual-Control   Outer-Iter.   Inner-Iter.     Column Row Layer    Maximum-Head-Change  Column Row Layer    Maximum-Flux-Residual          L2-NORM 
          0                 1           2            69    1     1      -0.4438064381E-01      69    1    1        -0.2445711583E-02      0.4013861547E-01
          0                 2           2            69    1     1       0.4147505812E-02      69    1    1         0.2445593936E-03      0.3910529913E-02
          0                 3           2            71    7     1      -0.3531956647E-03      69    1    1        -0.2201134962E-04      0.3680075084E-03
          0                 4           1            71    7     1       0.2697718129E-04      70    4    1        -0.2305187733E-05      0.3149247185E-04
          0                 5           1            68    1     1      -0.1824111365E-05      70    4    1         0.2054677957E-06      0.2352690413E-05
          0                 6           1            67    1     1       0.1074821590E-06      70    4    1        -0.1426378837E-07      0.1495586525E-06

    ------------------------------------------------
       NWT REQUIRED            6 OUTER ITERATIONS 
       AND A TOTAL OF          9 INNER ITERATIONS.
    ------------------------------------------------

 NO OUTPUT CONTROL FOR STRESS PERIOD   16   TIME STEP   15
 
 WELLS WITH REDUCED PUMPING FOR STRESS PERIOD    16 TIME STEP    15
   LAY   ROW   COL         APPL.Q          ACT.Q        GW-HEAD       CELL-BOT
     1     3    50  -0.860018E+00  -0.544874E+00   0.660814E+01   0.000000E+00
     1     5    55  -0.860018E+00  -0.485865E+00   0.603182E+01   0.000000E+00
 
 
 SOLVING FOR HEAD 
                                                   Max.-Head-Change                         Max.-Flux-Residual
  Residual-Control   Outer-Iter.   Inner-Iter.     Column Row Layer    Maximum-Head-Change  Column Row Layer    Maximum-Flux-Residual          L2-NORM 
          0                 1           2            69    1     1      -0.4868300688E-01      69    1    1        -0.2440204417E-02      0.3997519453E-01
          0                 2           2            71    7     1       0.4534203511E-02      69    1    1         0.2440066986E-03      0.3894444620E-02
          0                 3           2            71    7     1      -0.3849108022E-03      69    1    1        -0.2196176388E-04      0.3669463738E-03
          0                 4           1            71    7     1       0.2928835234E-04      70    4    1        -0.2352295656E-05      0.3150479520E-04
          0                 5           1            68    1     1      -0.1968960684E-05      70    4    1         0.2113395112E-06      0.2362816336E-05
          0                 6           1            67    1     1       0.1156148198E-06      70    4    1        -0.1478164080E-07      0.1508130704E-06

    ------------------------------------------------
       NWT REQUIRED            6 OUTER ITERATIONS 
       AND A TOTAL OF          9 INNER ITERATIONS.
    ------------------------------------------------

 NO OUTPUT CONTROL FOR STRESS PERIOD   16   TIME STEP   16
 
 WELLS WITH REDUCED PUMPING FOR STRESS PERIOD    16 TIME STEP    16
   LAY   ROW   COL         APPL.Q          ACT.Q        GW-HEAD       CELL-BOT
     1     3    50  -0.860018E+00  -0.545492E+00   0.661369E+01   0.000000E+00
     1     5    55  -0.860018E+00  -0.486202E+00   0.603474E+01   0.000000E+00
 
 
 SOLVING FOR HEAD 
                                                   Max.-Head-Change                         Max.-Flux-Residual
  Residual-Control   Outer-Iter.   Inner-Iter.     Column Row Layer    Maximum-Head-Change  Column Row Layer    Maximum-Flux-Residual          L2-NORM 
          0                 1           2            69    1     1      -0.5338940844E-01      69    1    1        -0.2434152921E-02      0.3980363592E-01
          0                 2           2            71    7     1       0.4958089147E-02      69    1    1         0.2433992906E-03      0.3881447165E-02
          0                 3           2            71    7     1      -0.4193826878E-03      69    1    1        -0.2190727312E-04      0.3664665692E-03
          0                 4           1            71    7     1       0.3178697973E-04      70    4    1        -0.2396253274E-05      0.3157249206E-04
          0                 5           1            71    7     1      -0.2127291585E-05      70    4    1         0.2169174298E-06      0.2376313535E-05
          0                 6           1            67    1     1       0.1242061264E-06      70    4    1        -0.1528121629E-07      0.1522179481E-06

    ------------------------------------------------
       NWT REQUIRED            6 OUTER ITERATIONS 
       AND A TOTAL OF          9 INNER ITERATIONS.
    ------------------------------------------------

 NO OUTPUT CONTROL FOR STRESS PERIOD   16   TIME STEP   17
 
 WELLS WITH REDUCED PUMPING FOR STRESS PERIOD    16 TIME STEP    17
   LAY   ROW   COL         APPL.Q          ACT.Q        GW-HEAD       CELL-BOT
     1     3    50  -0.859990E+00  -0.545963E+00   0.661808E+01   0.000000E+00
     1     5    55  -0.859990E+00  -0.486395E+00   0.603656E+01   0.000000E+00
 
 
 SOLVING FOR HEAD 
                                                   Max.-Head-Change                         Max.-Flux-Residual
  Residual-Control   Outer-Iter.   Inner-Iter.     Column Row Layer    Maximum-Head-Change  Column Row Layer    Maximum-Flux-Residual          L2-NORM 
          0                 1           2            69    1     1      -0.5853503631E-01      69    1    1        -0.2427510497E-02      0.3954369145E-01
          0                 2           2            71    7     1       0.5420530789E-02      69    1    1         0.2427324677E-03      0.3922073175E-02
          0                 3           2            71    7     1      -0.4568494920E-03      69    1    1        -0.2184745573E-04      0.3733811356E-03
          0                 4           1            71    7     1       0.3448869410E-04      70    4    1        -0.2436963262E-05      0.3225341190E-04
          0                 5           1            71    7     1      -0.2297460332E-05      70    4    1         0.2221802031E-06      0.2427256222E-05
          0                 6           1            67    1     1       0.1333024609E-06      70    4    1        -0.1575899766E-07      0.1553670378E-06

    ------------------------------------------------
       NWT REQUIRED            6 OUTER ITERATIONS 
       AND A TOTAL OF          9 INNER ITERATIONS.
    ------------------------------------------------

 NO OUTPUT CONTROL FOR STRESS PERIOD   16   TIME STEP   18
 
 WELLS WITH REDUCED PUMPING FOR STRESS PERIOD    16 TIME STEP    18
   LAY   ROW   COL         APPL.Q          ACT.Q        GW-HEAD       CELL-BOT
     1     3    50  -0.859985E+00  -0.546313E+00   0.662125E+01   0.000000E+00
     1     5    55  -0.859985E+00  -0.486467E+00   0.603721E+01   0.000000E+00
 
 
 SOLVING FOR HEAD 
                                                   Max.-Head-Change                         Max.-Flux-Residual
  Residual-Control   Outer-Iter.   Inner-Iter.     Column Row Layer    Maximum-Head-Change  Column Row Layer    Maximum-Flux-Residual          L2-NORM 
          0                 1           2            69    1     1      -0.6415672228E-01      69    1    1        -0.2420216404E-02      0.3822295061E-01
          0                 2           2            71    7     1       0.5924203155E-02      69    1    1         0.2420000863E-03      0.3783603821E-02
          0                 3           2            71    7     1      -0.4975067752E-03      69    1    1        -0.2178175946E-04      0.3613949065E-03
          0                 4           1            71    7     1       0.3740614478E-04      70    4    1        -0.2469774859E-05      0.3139129667E-04
          0                 5           1            71    7     1      -0.2479671649E-05      70    4    1         0.2268593704E-06      0.2373495595E-05
          0                 6           1            67    1     1       0.1428723543E-06      70    4    1        -0.1620250245E-07      0.1525277725E-06

    ------------------------------------------------
       NWT REQUIRED            6 OUTER ITERATIONS 
       AND A TOTAL OF          9 INNER ITERATIONS.
    ------------------------------------------------

 NO OUTPUT CONTROL FOR STRESS PERIOD   16   TIME STEP   19
 
 WELLS WITH REDUCED PUMPING FOR STRESS PERIOD    16 TIME STEP    19
   LAY   ROW   COL         APPL.Q          ACT.Q        GW-HEAD       CELL-BOT
     1     3    50  -0.859981E+00  -0.546538E+00   0.662329E+01   0.000000E+00
     1     5    55  -0.859981E+00  -0.486410E+00   0.603673E+01   0.000000E+00
 
 
 SOLVING FOR HEAD 
                                                   Max.-Head-Change                         Max.-Flux-Residual
  Residual-Control   Outer-Iter.   Inner-Iter.     Column Row Layer    Maximum-Head-Change  Column Row Layer    Maximum-Flux-Residual          L2-NORM 
          0                 1           2            69    1     1      -0.7023918998E-01      69    1    1        -0.2412160658E-02      0.3739295141E-01
          0                 2           2            69    7     1       0.6458294262E-02      69    1    1         0.2411891617E-03      0.3689362388E-02
          0                 3           2            70    7     1      -0.5401284961E-03      74    4    1         0.2240149395E-04      0.3528452493E-03
          0                 4           1            70    7     1       0.4037290781E-04      74    4    1        -0.2575940622E-05      0.3077805319E-04
          0                 5           1            70    1     1      -0.2659493153E-05      74    4    1         0.2269798802E-06      0.2335882088E-05
          0                 6           1            67    1     1       0.1529665124E-06      68    4    1        -0.1611485523E-07      0.1506427824E-06

    ------------------------------------------------
       NWT REQUIRED            6 OUTER ITERATIONS 
       AND A TOTAL OF          9 INNER ITERATIONS.
    ------------------------------------------------

 NO OUTPUT CONTROL FOR STRESS PERIOD   16   TIME STEP   20
 
 WELLS WITH REDUCED PUMPING FOR STRESS PERIOD    16 TIME STEP    20
   LAY   ROW   COL         APPL.Q          ACT.Q        GW-HEAD       CELL-BOT
     1     3    50  -0.860010E+00  -0.546649E+00   0.662413E+01   0.000000E+00
     1     5    55  -0.860010E+00  -0.486233E+00   0.603505E+01   0.000000E+00
 
 
 SOLVING FOR HEAD 
                                                   Max.-Head-Change                         Max.-Flux-Residual
  Residual-Control   Outer-Iter.   Inner-Iter.     Column Row Layer    Maximum-Head-Change  Column Row Layer    Maximum-Flux-Residual          L2-NORM 
          0                 1           2            68    1     1      -0.7609716837E-01      69    1    1        -0.2401319227E-02      0.3672839190E-01
          0                 2           2            67    1     1       0.6970502464E-02      69    1    1         0.2400451018E-03      0.3620715154E-02
          0                 3           2            67    1     1      -0.5794186235E-03      69    4    1         0.2370612307E-04      0.3469597920E-03
          0                 4           1            67    1     1       0.4321984949E-04      69    4    1        -0.2866378168E-05      0.3037300516E-04
          0                 5           1            67    1     1      -0.2847559548E-05      69    4    1         0.2521577418E-06      0.2310925905E-05
          0                 6           1            67    1     1       0.1633598056E-06      69    4    1        -0.1755535628E-07      0.1494192312E-06

    ------------------------------------------------
       NWT REQUIRED            6 OUTER ITERATIONS 
       AND A TOTAL OF          9 INNER ITERATIONS.
    ------------------------------------------------

 NO OUTPUT CONTROL FOR STRESS PERIOD   16   TIME STEP   21
 
 WELLS WITH REDUCED PUMPING FOR STRESS PERIOD    16 TIME STEP    21
   LAY   ROW   COL         APPL.Q          ACT.Q        GW-HEAD       CELL-BOT
     1     3    50  -0.860000E+00  -0.546623E+00   0.662396E+01   0.000000E+00
     1     5    55  -0.860000E+00  -0.485917E+00   0.603236E+01   0.000000E+00
 
 
 SOLVING FOR HEAD 
                                                   Max.-Head-Change                         Max.-Flux-Residual
  Residual-Control   Outer-Iter.   Inner-Iter.     Column Row Layer    Maximum-Head-Change  Column Row Layer    Maximum-Flux-Residual          L2-NORM 
          0                 1           2            66    1     1      -0.8094268914E-01      68    1    1        -0.2365935647E-02      0.3612761412E-01
          0                 2           2            66    1     1       0.7383874780E-02      68    7    1         0.2364251186E-03      0.3561276746E-02
          0                 3           2            66    1     1      -0.6114762753E-03      68    4    1         0.2810484663E-04      0.3420574173E-03
          0                 4           1            65    1     1       0.4549439944E-04      68    4    1        -0.3114930516E-05      0.3005241930E-04
          0                 5           1            65    1     1      -0.2994631924E-05      68    4    1         0.2666440331E-06      0.2290737503E-05
          0                 6           1            65    1     1       0.1718050060E-06      68    4    1        -0.1833269359E-07      0.1483940776E-06

    ------------------------------------------------
       NWT REQUIRED            6 OUTER ITERATIONS 
       AND A TOTAL OF          9 INNER ITERATIONS.
    ------------------------------------------------

 NO OUTPUT CONTROL FOR STRESS PERIOD   16   TIME STEP   22
 
 WELLS WITH REDUCED PUMPING FOR STRESS PERIOD    16 TIME STEP    22
   LAY   ROW   COL         APPL.Q          ACT.Q        GW-HEAD       CELL-BOT
     1     3    50  -0.859994E+00  -0.546475E+00   0.662265E+01   0.000000E+00
     1     5    55  -0.859994E+00  -0.485471E+00   0.602852E+01   0.000000E+00
 
 
 SOLVING FOR HEAD 
                                                   Max.-Head-Change                         Max.-Flux-Residual
  Residual-Control   Outer-Iter.   Inner-Iter.     Column Row Layer    Maximum-Head-Change  Column Row Layer    Maximum-Flux-Residual          L2-NORM 
          0                 1           3            68    1     1      -0.8512569317E-01      66    1    1        -0.2288525118E-02      0.3557388792E-01
          0                 2           2            70    7     1       0.7713729408E-02      66    1    1         0.2286683294E-03      0.3504414241E-02
          0                 3           2            71    7     1      -0.6360763472E-03      66    4    1         0.2622045935E-04      0.3371805541E-03
          0                 4           1            65    1     1       0.4723624722E-04      66    4    1        -0.2950408174E-05      0.2972317422E-04
          0                 5           1            65    1     1      -0.3100635229E-05      66    4    1         0.2545626838E-06      0.2268154216E-05
          0                 6           1            65    1     1       0.1775792743E-06      66    4    1        -0.1760156643E-07      0.1471456662E-06

    ------------------------------------------------
       NWT REQUIRED            6 OUTER ITERATIONS 
       AND A TOTAL OF         10 INNER ITERATIONS.
    ------------------------------------------------

 NO OUTPUT CONTROL FOR STRESS PERIOD   16   TIME STEP   23
 
 WELLS WITH REDUCED PUMPING FOR STRESS PERIOD    16 TIME STEP    23
   LAY   ROW   COL         APPL.Q          ACT.Q        GW-HEAD       CELL-BOT
     1     3    50  -0.859989E+00  -0.546195E+00   0.662017E+01   0.000000E+00
     1     5    55  -0.859989E+00  -0.484888E+00   0.602349E+01   0.000000E+00
 
 
 SOLVING FOR HEAD 
                                                   Max.-Head-Change                         Max.-Flux-Residual
  Residual-Control   Outer-Iter.   Inner-Iter.     Column Row Layer    Maximum-Head-Change  Column Row Layer    Maximum-Flux-Residual          L2-NORM 
          0                 1           3            69    1     1      -0.9263399078E-01      68    1    1        -0.2189278597E-02      0.3507379405E-01
          0                 2           2            71    7     1       0.8388525398E-02      68    1    1         0.2188610737E-03      0.3451818995E-02
          0                 3           2            71    7     1      -0.6897283878E-03      63    4    1         0.2657454595E-04      0.3325051846E-03
          0                 4           1            71    7     1       0.5064054201E-04      63    4    1        -0.2892715679E-05      0.2939744449E-04
          0                 5           1            71    7     1      -0.3242663262E-05      63    4    1         0.2370744312E-06      0.2243879477E-05
          0                 6           1            65    1     1       0.1810660713E-06      68    4    1        -0.1696722052E-07      0.1457034952E-06

    ------------------------------------------------
       NWT REQUIRED            6 OUTER ITERATIONS 
       AND A TOTAL OF         10 INNER ITERATIONS.
    ------------------------------------------------

 NO OUTPUT CONTROL FOR STRESS PERIOD   16   TIME STEP   24
 
 WELLS WITH REDUCED PUMPING FOR STRESS PERIOD    16 TIME STEP    24
   LAY   ROW   COL         APPL.Q          ACT.Q        GW-HEAD       CELL-BOT
     1     3    50  -0.859996E+00  -0.545782E+00   0.661642E+01   0.000000E+00
     1     5    55  -0.859996E+00  -0.484163E+00   0.601718E+01   0.000000E+00
 
 
 SOLVING FOR HEAD 
                                                   Max.-Head-Change                         Max.-Flux-Residual
  Residual-Control   Outer-Iter.   Inner-Iter.     Column Row Layer    Maximum-Head-Change  Column Row Layer    Maximum-Flux-Residual          L2-NORM 
          0                 1           3            70    1     1      -0.1011599690E+00      69    1    1        -0.2166498247E-02      0.3456740105E-01
          0                 2           2            71    7     1       0.9143713450E-02      69    1    1         0.2165997904E-03      0.3413052494E-02
          0                 3           2            71    7     1      -0.7491944133E-03      61    4    1         0.2420567362E-04      0.3305457810E-03
          0                 4           1            71    7     1       0.5475578957E-04      69    4    1        -0.2625179219E-05      0.2936550212E-04
          0                 5           1            71    7     1      -0.3472671569E-05      68    4    1         0.2390203786E-06      0.2241179677E-05
          0                 6           1            71    7     1       0.1915745841E-06      68    4    1        -0.1722697718E-07      0.1454252907E-06

    ------------------------------------------------
       NWT REQUIRED            6 OUTER ITERATIONS 
       AND A TOTAL OF         10 INNER ITERATIONS.
    ------------------------------------------------

 NO OUTPUT CONTROL FOR STRESS PERIOD   16   TIME STEP   25
 
 WELLS WITH REDUCED PUMPING FOR STRESS PERIOD    16 TIME STEP    25
   LAY   ROW   COL         APPL.Q          ACT.Q        GW-HEAD       CELL-BOT
     1     3    50  -0.860009E+00  -0.545227E+00   0.661137E+01   0.000000E+00
     1     5    55  -0.860009E+00  -0.483288E+00   0.600953E+01   0.000000E+00
 
 
 SOLVING FOR HEAD 
                                                   Max.-Head-Change                         Max.-Flux-Residual
  Residual-Control   Outer-Iter.   Inner-Iter.     Column Row Layer    Maximum-Head-Change  Column Row Layer    Maximum-Flux-Residual          L2-NORM 
          0                 1           3            70    1     1      -0.1104949915E+00      70    1    1        -0.2150643833E-02      0.3407976033E-01
          0                 2           2            71    7     1       0.9969062606E-02      70    1    1         0.2150148935E-03      0.3425453547E-02
          0                 3           2            71    7     1      -0.8143245817E-03      86    4    1         0.2140696634E-04      0.3346692919E-03
          0                 4           1            71    7     1       0.5926236870E-04      68    4    1        -0.2605276670E-05      0.2979279671E-04
          0                 5           1            71    7     1      -0.3721159671E-05      68    4    1         0.2418176894E-06      0.2264840792E-05
          0                 6           1            71    7     1       0.2034930275E-06      68    4    1        -0.1750729339E-07      0.1463542110E-06

    ------------------------------------------------
       NWT REQUIRED            6 OUTER ITERATIONS 
       AND A TOTAL OF         10 INNER ITERATIONS.
    ------------------------------------------------

 NO OUTPUT CONTROL FOR STRESS PERIOD   16   TIME STEP   26
 
 WELLS WITH REDUCED PUMPING FOR STRESS PERIOD    16 TIME STEP    26
   LAY   ROW   COL         APPL.Q          ACT.Q        GW-HEAD       CELL-BOT
     1     3    50  -0.860005E+00  -0.544529E+00   0.660513E+01   0.000000E+00
     1     5    55  -0.860005E+00  -0.482259E+00   0.600064E+01   0.000000E+00
 
 
 SOLVING FOR HEAD 
                                                   Max.-Head-Change                         Max.-Flux-Residual
  Residual-Control   Outer-Iter.   Inner-Iter.     Column Row Layer    Maximum-Head-Change  Column Row Layer    Maximum-Flux-Residual          L2-NORM 
          0                 1           3            70    1     1      -0.1205775996E+00      70    1    1        -0.2135839019E-02      0.3261763680E-01
          0                 2           2            71    7     1       0.1084963491E-01      70    1    1         0.2135266964E-03      0.3254976931E-02
          0                 3           2            71    7     1      -0.8844238917E-03      79    4    1         0.2396554409E-04      0.3190171725E-03
          0                 4           1            71    7     1       0.6414457456E-04      78    4    1        -0.2729313765E-05      0.2859649262E-04
          0                 5           1            71    7     1      -0.3985200651E-05      68    4    1         0.2448360092E-06      0.2177022928E-05
          0                 6           1            69    7     1       0.2172360922E-06      68    4    1        -0.1782639991E-07      0.1409033075E-06

    ------------------------------------------------
       NWT REQUIRED            6 OUTER ITERATIONS 
       AND A TOTAL OF         10 INNER ITERATIONS.
    ------------------------------------------------

 NO OUTPUT CONTROL FOR STRESS PERIOD   16   TIME STEP   27
 
 WELLS WITH REDUCED PUMPING FOR STRESS PERIOD    16 TIME STEP    27
   LAY   ROW   COL         APPL.Q          ACT.Q        GW-HEAD       CELL-BOT
     1     3    50  -0.860002E+00  -0.543753E+00   0.659819E+01   0.000000E+00
     1     5    55  -0.860002E+00  -0.481140E+00   0.599096E+01   0.000000E+00
 
 
 SOLVING FOR HEAD 
                                                   Max.-Head-Change                         Max.-Flux-Residual
  Residual-Control   Outer-Iter.   Inner-Iter.     Column Row Layer    Maximum-Head-Change  Column Row Layer    Maximum-Flux-Residual          L2-NORM 
          0                 1           3            69    1     1      -0.1308076713E+00      70    1    1        -0.2119230189E-02      0.3176464398E-01
          0                 2           2            69    7     1       0.1167948278E-01      70    7    1         0.2118261289E-03      0.3160726889E-02
          0                 3           2            69    7     1      -0.9451312313E-03      74    4    1         0.2564622126E-04      0.3109318289E-03
          0                 4           1            69    7     1       0.6811200526E-04      74    4    1        -0.2940787322E-05      0.2802902673E-04
          0                 5           1            69    7     1      -0.4202728939E-05      74    4    1         0.2600485800E-06      0.2131210302E-05
          0                 6           1            69    7     1       0.2271616812E-06      74    4    1        -0.1826617613E-07      0.1379135088E-06

    ------------------------------------------------
       NWT REQUIRED            6 OUTER ITERATIONS 
       AND A TOTAL OF         10 INNER ITERATIONS.
    ------------------------------------------------

 NO OUTPUT CONTROL FOR STRESS PERIOD   16   TIME STEP   28
 
 WELLS WITH REDUCED PUMPING FOR STRESS PERIOD    16 TIME STEP    28
   LAY   ROW   COL         APPL.Q          ACT.Q        GW-HEAD       CELL-BOT
     1     3    50  -0.860002E+00  -0.543133E+00   0.659263E+01   0.000000E+00
     1     5    55  -0.860002E+00  -0.480177E+00   0.598262E+01   0.000000E+00
 
 
 SOLVING FOR HEAD 
                                                   Max.-Head-Change                         Max.-Flux-Residual
  Residual-Control   Outer-Iter.   Inner-Iter.     Column Row Layer    Maximum-Head-Change  Column Row Layer    Maximum-Flux-Residual          L2-NORM 
          0                 1           3            68    1     1      -0.1391796902E+00      69    1    1        -0.2091384423E-02      0.3106664469E-01
          0                 2           2            67    7     1       0.1229834929E-01      69    1    1         0.2089167182E-03      0.3085935302E-02
          0                 3           2            67    7     1      -0.9832793260E-03      71    4    1         0.2640960794E-04      0.3045034727E-03
          0                 4           1            67    1     1       0.7012070672E-04      68    4    1        -0.3028303077E-05      0.2757231973E-04
          0                 5           1            67    1     1      -0.4298034818E-05      68    4    1         0.2769047409E-06      0.2088811526E-05
          0                 6           1            65    1     1       0.2337874504E-06      68    4    1        -0.1979694275E-07      0.1349896346E-06

    ------------------------------------------------
       NWT REQUIRED            6 OUTER ITERATIONS 
       AND A TOTAL OF         10 INNER ITERATIONS.
    ------------------------------------------------

 NO OUTPUT CONTROL FOR STRESS PERIOD   16   TIME STEP   29
 
 WELLS WITH REDUCED PUMPING FOR STRESS PERIOD    16 TIME STEP    29
   LAY   ROW   COL         APPL.Q          ACT.Q        GW-HEAD       CELL-BOT
     1     3    50  -0.859994E+00  -0.542844E+00   0.659008E+01   0.000000E+00
     1     5    55  -0.859994E+00  -0.479491E+00   0.597672E+01   0.000000E+00
 
 
 SOLVING FOR HEAD 
                                                   Max.-Head-Change                         Max.-Flux-Residual
  Residual-Control   Outer-Iter.   Inner-Iter.     Column Row Layer    Maximum-Head-Change  Column Row Layer    Maximum-Flux-Residual          L2-NORM 
          0                 1           3            66    1     1      -0.1445754108E+00      68    1    1        -0.2025087026E-02      0.3032009552E-01
          0                 2           2            66    1     1       0.1271031706E-01      68    1    1         0.2021777264E-03      0.3013920461E-02
          0                 3           2            65    1     1      -0.1010876955E-02      68    4    1         0.2954753945E-04      0.2985180795E-03
          0                 4           1            65    1     1       0.7197805433E-04      68    4    1        -0.3311481551E-05      0.2714440685E-04
          0                 5           1            65    1     1      -0.4413851464E-05      68    4    1         0.2878641112E-06      0.2043543338E-05
          0                 6           1            65    1     1       0.2406697362E-06      68    4    1        -0.2001198673E-07      0.1317082620E-06

    ------------------------------------------------
       NWT REQUIRED            6 OUTER ITERATIONS 
       AND A TOTAL OF         10 INNER ITERATIONS.
    ------------------------------------------------

 NO OUTPUT CONTROL FOR STRESS PERIOD   16   TIME STEP   30
 
 WELLS WITH REDUCED PUMPING FOR STRESS PERIOD    16 TIME STEP    30
   LAY   ROW   COL         APPL.Q          ACT.Q        GW-HEAD       CELL-BOT
     1     3    50  -0.859995E+00  -0.542068E+00   0.658312E+01   0.000000E+00
     1     5    55  -0.859995E+00  -0.478309E+00   0.596649E+01   0.000000E+00
 



 STREAM LISTING     PERIOD     16   STEP       30

 LAYER ROW COL. STREAM  RCH.   FLOW INTO    STREAM     FLOW OUT OF   OVRLND.    DIRECT     STREAM      STREAM      STREAM     STREAM  STREAMBED   FLOW TO   CHNG. UNSAT. 
                SEG.NO.  NO.   STRM. RCH.    LOSS       STRM. RCH.   RUNOFF     PRECIP       ET         HEAD        DEPTH      WIDTH  CONDCTNC.   WAT. TAB.

   1    4    1     1     1    2.2410E+01  5.7805E-03   2.2404E+01  0.000E+00  0.000E+00  0.000E+00  1.43421E+02  3.571E+00  6.283E+00  1.420E-03  4.540E-03  1.240E-03
   1    4    2     1     2    2.2404E+01  5.7791E-03   2.2398E+01  0.000E+00  0.000E+00  0.000E+00  1.43120E+02  3.570E+00  6.281E+00  1.420E-03  4.540E-03  1.240E-03
   1    4    3     1     3    2.2398E+01  5.7777E-03   2.2393E+01  0.000E+00  0.000E+00  0.000E+00  1.42820E+02  3.570E+00  6.280E+00  1.420E-03  4.539E-03  1.239E-03
   1    4    4     1     4    2.2393E+01  5.7763E-03   2.2387E+01  0.000E+00  0.000E+00  0.000E+00  1.42520E+02  3.570E+00  6.278E+00  1.419E-03  4.538E-03  1.239E-03
   1    4    5     1     5    2.2387E+01  5.7749E-03   2.2381E+01  0.000E+00  0.000E+00  0.000E+00  1.42219E+02  3.569E+00  6.277E+00  1.419E-03  4.536E-03  1.239E-03
   1    4    6     1     6    2.2381E+01  5.7735E-03   2.2375E+01  0.000E+00  0.000E+00  0.000E+00  1.41919E+02  3.569E+00  6.276E+00  1.419E-03  4.535E-03  1.239E-03
   1    4    7     1     7    2.2375E+01  5.7721E-03   2.2370E+01  0.000E+00  0.000E+00  0.000E+00  1.41619E+02  3.569E+00  6.274E+00  1.419E-03  4.533E-03  1.239E-03
   1    4    8     1     8    2.2370E+01  5.7707E-03   2.2364E+01  0.000E+00  0.000E+00  0.000E+00  1.41318E+02  3.568E+00  6.273E+00  1.418E-03  4.531E-03  1.239E-03
   1    4    9     1     9    2.2364E+01  5.7693E-03   2.2358E+01  0.000E+00  0.000E+00  0.000E+00  1.41018E+02  3.568E+00  6.271E+00  1.418E-03  4.529E-03  1.240E-03
   1    4   10     1    10    2.2358E+01  5.7678E-03   2.2352E+01  0.000E+00  0.000E+00  0.000E+00  1.40717E+02  3.567E+00  6.270E+00  1.418E-03  4.527E-03  1.241E-03
   1    4   11     1    11    2.2352E+01  5.7664E-03   2.2346E+01  0.000E+00  0.000E+00  0.000E+00  1.40417E+02  3.567E+00  6.268E+00  1.418E-03  4.525E-03  1.241E-03
   1    4   12     1    12    2.2346E+01  5.7650E-03   2.2341E+01  0.000E+00  0.000E+00  0.000E+00  1.40117E+02  3.567E+00  6.267E+00  1.418E-03  4.523E-03  1.242E-03
   1    4   13     1    13    2.2341E+01  5.7636E-03   2.2335E+01  0.000E+00  0.000E+00  0.000E+00  1.39816E+02  3.566E+00  6.266E+00  1.417E-03  4.520E-03  1.244E-03
   1    4   14     1    14    2.2335E+01  5.7622E-03   2.2329E+01  0.000E+00  0.000E+00  0.000E+00  1.39516E+02  3.566E+00  6.264E+00  1.417E-03  4.517E-03  1.245E-03
   1    4   15     1    15    2.2329E+01  5.7608E-03   2.2323E+01  0.000E+00  0.000E+00  0.000E+00  1.39216E+02  3.566E+00  6.263E+00  1.417E-03  4.515E-03  1.246E-03
   1    4   16     1    16    2.2323E+01  5.7594E-03   2.2318E+01  0.000E+00  0.000E+00  0.000E+00  1.38915E+02  3.565E+00  6.261E+00  1.417E-03  4.526E-03  1.233E-03
   1    4   17     1    17    2.2318E+01  5.7580E-03   2.2312E+01  0.000E+00  0.000E+00  0.000E+00  1.38615E+02  3.565E+00  6.260E+00  1.416E-03  4.530E-03  1.228E-03
   1    4   18     1    18    2.2312E+01  5.7566E-03   2.2306E+01  0.000E+00  0.000E+00  0.000E+00  1.38315E+02  3.565E+00  6.259E+00  1.416E-03  4.527E-03  1.229E-03
   1    4   19     1    19    2.2306E+01  5.7552E-03   2.2300E+01  0.000E+00  0.000E+00  0.000E+00  1.38014E+02  3.564E+00  6.257E+00  1.416E-03  4.524E-03  1.231E-03
   1    4   20     1    20    2.2300E+01  5.7538E-03   2.2295E+01  0.000E+00  0.000E+00  0.000E+00  1.37714E+02  3.564E+00  6.256E+00  1.416E-03  4.521E-03  1.233E-03
   1    4   21     1    21    2.2295E+01  5.7524E-03   2.2289E+01  0.000E+00  0.000E+00  0.000E+00  1.37414E+02  3.564E+00  6.254E+00  1.416E-03  4.517E-03  1.235E-03
   1    4   22     1    22    2.2289E+01  5.7510E-03   2.2283E+01  0.000E+00  0.000E+00  0.000E+00  1.37113E+02  3.563E+00  6.253E+00  1.415E-03  4.514E-03  1.237E-03
   1    4   23     1    23    2.2283E+01  5.7496E-03   2.2277E+01  0.000E+00  0.000E+00  0.000E+00  1.36813E+02  3.563E+00  6.251E+00  1.415E-03  4.511E-03  1.239E-03
   1    4   24     1    24    2.2277E+01  5.7481E-03   2.2272E+01  0.000E+00  0.000E+00  0.000E+00  1.36512E+02  3.563E+00  6.250E+00  1.415E-03  4.508E-03  1.241E-03
   1    4   25     1    25    2.2272E+01  5.7467E-03   2.2266E+01  0.000E+00  0.000E+00  0.000E+00  1.36212E+02  3.562E+00  6.249E+00  1.415E-03  4.504E-03  1.242E-03
   1    4   26     1    26    2.2266E+01  5.7453E-03   2.2260E+01  0.000E+00  0.000E+00  0.000E+00  1.35912E+02  3.562E+00  6.247E+00  1.414E-03  4.501E-03  1.244E-03
   1    4   27     1    27    2.2260E+01  5.7439E-03   2.2254E+01  0.000E+00  0.000E+00  0.000E+00  1.35611E+02  3.561E+00  6.246E+00  1.414E-03  4.498E-03  1.246E-03
   1    4   28     1    28    2.2254E+01  5.7425E-03   2.2249E+01  0.000E+00  0.000E+00  0.000E+00  1.35311E+02  3.561E+00  6.244E+00  1.414E-03  4.495E-03  1.248E-03
   1    4   29     1    29    2.2249E+01  5.7411E-03   2.2243E+01  0.000E+00  0.000E+00  0.000E+00  1.35011E+02  3.561E+00  6.243E+00  1.414E-03  4.492E-03  1.249E-03
   1    4   30     1    30    2.2243E+01  5.7397E-03   2.2237E+01  0.000E+00  0.000E+00  0.000E+00  1.34710E+02  3.560E+00  6.242E+00  1.414E-03  4.489E-03  1.250E-03
   1    4   31     1    31    2.2237E+01  5.7383E-03   2.2231E+01  0.000E+00  0.000E+00  0.000E+00  1.34410E+02  3.560E+00  6.240E+00  1.413E-03  4.487E-03  1.251E-03
   1    4   32     1    32    2.2231E+01  5.7369E-03   2.2226E+01  0.000E+00  0.000E+00  0.000E+00  1.34110E+02  3.560E+00  6.239E+00  1.413E-03  4.485E-03  1.252E-03
   1    4   33     1    33    2.2226E+01  5.7355E-03   2.2220E+01  0.000E+00  0.000E+00  0.000E+00  1.33809E+02  3.559E+00  6.237E+00  1.413E-03  4.483E-03  1.253E-03
   1    4   34     1    34    2.2220E+01  5.7341E-03   2.2214E+01  0.000E+00  0.000E+00  0.000E+00  1.33509E+02  3.559E+00  6.236E+00  1.413E-03  4.483E-03  1.251E-03
   1    4   35     1    35    2.2214E+01  5.7327E-03   2.2209E+01  0.000E+00  0.000E+00  0.000E+00  1.33209E+02  3.559E+00  6.234E+00  1.412E-03  4.484E-03  1.249E-03
   1    4   36     1    36    2.2209E+01  5.7313E-03   2.2203E+01  0.000E+00  0.000E+00  0.000E+00  1.32908E+02  3.558E+00  6.233E+00  1.412E-03  4.484E-03  1.247E-03
   1    4   37     1    37    2.2203E+01  5.7299E-03   2.2197E+01  0.000E+00  0.000E+00  0.000E+00  1.32608E+02  3.558E+00  6.232E+00  1.412E-03  4.254E-03  1.476E-03
   1    4   38     1    38    2.2197E+01  5.7285E-03   2.2191E+01  0.000E+00  0.000E+00  0.000E+00  1.32308E+02  3.558E+00  6.230E+00  1.412E-03  3.851E-03  1.877E-03
   1    4   39     1    39    2.2191E+01  5.7271E-03   2.2186E+01  0.000E+00  0.000E+00  0.000E+00  1.32007E+02  3.557E+00  6.229E+00  1.412E-03  3.445E-03  2.282E-03
   1    4   40     1    40    2.2186E+01  5.7257E-03   2.2180E+01  0.000E+00  0.000E+00  0.000E+00  1.31707E+02  3.557E+00  6.227E+00  1.411E-03  3.299E-03  2.426E-03
   1    4   41     1    41    2.2180E+01  5.7243E-03   2.2174E+01  0.000E+00  0.000E+00  0.000E+00  1.31406E+02  3.556E+00  6.226E+00  1.411E-03  3.301E-03  2.423E-03
   1    4   42     1    42    2.2174E+01  5.7229E-03   2.2168E+01  0.000E+00  0.000E+00  0.000E+00  1.31106E+02  3.556E+00  6.224E+00  1.411E-03  3.305E-03  2.418E-03
   1    4   43     1    43    2.2168E+01  5.7215E-03   2.2163E+01  0.000E+00  0.000E+00  0.000E+00  1.30806E+02  3.556E+00  6.223E+00  1.411E-03  3.348E-03  2.374E-03
   1    4   44     1    44    2.2163E+01  5.7201E-03   2.2157E+01  0.000E+00  0.000E+00  0.000E+00  1.30505E+02  3.555E+00  6.222E+00  1.410E-03  3.355E-03  2.365E-03
   1    4   45     1    45    2.2157E+01  5.7187E-03   2.2151E+01  0.000E+00  0.000E+00  0.000E+00  1.30205E+02  3.555E+00  6.220E+00  1.410E-03  3.364E-03  2.355E-03
   1    4   46     1    46    2.2151E+01  5.7173E-03   2.2146E+01  0.000E+00  0.000E+00  0.000E+00  1.29905E+02  3.555E+00  6.219E+00  1.410E-03  3.418E-03  2.299E-03
   1    4   47     1    47    2.2146E+01  5.7159E-03   2.2140E+01  0.000E+00  0.000E+00  0.000E+00  1.29604E+02  3.554E+00  6.217E+00  1.410E-03  3.431E-03  2.285E-03
   1    4   48     1    48    2.2140E+01  5.7145E-03   2.2134E+01  0.000E+00  0.000E+00  0.000E+00  1.29304E+02  3.554E+00  6.216E+00  1.410E-03  3.445E-03  2.269E-03
   1    4   49     1    49    2.2134E+01  5.7131E-03   2.2128E+01  0.000E+00  0.000E+00  0.000E+00  1.29004E+02  3.554E+00  6.215E+00  1.409E-03  3.502E-03  2.211E-03
   1    4   50     1    50    2.2128E+01  5.7117E-03   2.2123E+01  0.000E+00  0.000E+00  0.000E+00  1.28703E+02  3.553E+00  6.213E+00  1.409E-03  3.524E-03  2.188E-03
   1    4   51     1    51    2.2123E+01  5.7103E-03   2.2117E+01  0.000E+00  0.000E+00  0.000E+00  1.28403E+02  3.553E+00  6.212E+00  1.409E-03  3.539E-03  2.172E-03
   1    4   52     1    52    2.2117E+01  5.7090E-03   2.2111E+01  0.000E+00  0.000E+00  0.000E+00  1.28103E+02  3.553E+00  6.210E+00  1.409E-03  3.544E-03  2.165E-03
   1    4   53     1    53    2.2111E+01  5.7076E-03   2.2106E+01  0.000E+00  0.000E+00  0.000E+00  1.27802E+02  3.552E+00  6.209E+00  1.408E-03  3.541E-03  2.167E-03
   1    4   54     1    54    2.2106E+01  5.7062E-03   2.2100E+01  0.000E+00  0.000E+00  0.000E+00  1.27502E+02  3.552E+00  6.208E+00  1.408E-03  3.531E-03  2.176E-03
   1    4   55     1    55    2.2100E+01  5.7048E-03   2.2094E+01  0.000E+00  0.000E+00  0.000E+00  1.27202E+02  3.552E+00  6.206E+00  1.408E-03  3.512E-03  2.193E-03
   1    4   56     1    56    2.2094E+01  5.7034E-03   2.2088E+01  0.000E+00  0.000E+00  0.000E+00  1.26901E+02  3.551E+00  6.205E+00  1.408E-03  3.480E-03  2.223E-03
   1    4   57     1    57    2.2088E+01  5.7020E-03   2.2083E+01  0.000E+00  0.000E+00  0.000E+00  1.26601E+02  3.551E+00  6.203E+00  1.408E-03  3.456E-03  2.246E-03
   1    4   58     1    58    2.2083E+01  5.7006E-03   2.2077E+01  0.000E+00  0.000E+00  0.000E+00  1.26300E+02  3.550E+00  6.202E+00  1.407E-03  3.399E-03  2.302E-03
   1    4   59     1    59    2.2077E+01  5.6992E-03   2.2071E+01  0.000E+00  0.000E+00  0.000E+00  1.26000E+02  3.550E+00  6.200E+00  1.407E-03  3.381E-03  2.318E-03
   1    4   60     1    60    2.2071E+01  5.6978E-03   2.2066E+01  0.000E+00  0.000E+00  0.000E+00  1.25700E+02  3.550E+00  6.199E+00  1.407E-03  3.324E-03  2.374E-03
   1    4   61     1    61    2.2066E+01  5.6964E-03   2.2060E+01  0.000E+00  0.000E+00  0.000E+00  1.25399E+02  3.549E+00  6.198E+00  1.407E-03  3.312E-03  2.385E-03
   1    4   62     1    62    2.2060E+01  5.6950E-03   2.2054E+01  0.000E+00  0.000E+00  0.000E+00  1.25099E+02  3.549E+00  6.196E+00  1.407E-03  3.301E-03  2.394E-03
   1    4   63     1    63    2.2054E+01  5.6936E-03   2.2049E+01  0.000E+00  0.000E+00  0.000E+00  1.24799E+02  3.549E+00  6.195E+00  1.406E-03  3.258E-03  2.436E-03
   1    4   64     1    64    2.2049E+01  5.6922E-03   2.2043E+01  0.000E+00  0.000E+00  0.000E+00  1.24498E+02  3.548E+00  6.193E+00  1.406E-03  3.252E-03  2.441E-03
   1    4   65     1    65    2.2043E+01  5.6908E-03   2.2037E+01  0.000E+00  0.000E+00  0.000E+00  1.24198E+02  3.548E+00  6.192E+00  1.406E-03  3.248E-03  2.443E-03
   1    4   66     1    66    2.2037E+01  5.6894E-03   2.2031E+01  0.000E+00  0.000E+00  0.000E+00  1.23898E+02  3.548E+00  6.191E+00  1.406E-03  3.607E-03  2.082E-03
   1    4   67     1    67    2.2031E+01  5.6881E-03   2.2026E+01  0.000E+00  0.000E+00  0.000E+00  1.23597E+02  3.547E+00  6.189E+00  1.405E-03  4.063E-03  1.626E-03
   1    4   68     1    68    2.2026E+01  5.6867E-03   2.2020E+01  0.000E+00  0.000E+00  0.000E+00  1.23297E+02  3.547E+00  6.188E+00  1.405E-03  4.442E-03  1.245E-03
   1    4   69     1    69    2.2020E+01  5.6853E-03   2.2014E+01  0.000E+00  0.000E+00  0.000E+00  1.22997E+02  3.547E+00  6.186E+00  1.405E-03  4.417E-03  1.268E-03
   1    4   70     1    70    2.2014E+01  5.6839E-03   2.2009E+01  0.000E+00  0.000E+00  0.000E+00  1.22696E+02  3.546E+00  6.185E+00  1.405E-03  4.414E-03  1.270E-03
   1    4   71     1    71    2.2009E+01  5.6825E-03   2.2003E+01  0.000E+00  0.000E+00  0.000E+00  1.22396E+02  3.546E+00  6.184E+00  1.405E-03  4.412E-03  1.270E-03
   1    4   72     1    72    2.2003E+01  5.6811E-03   2.1997E+01  0.000E+00  0.000E+00  0.000E+00  1.22096E+02  3.546E+00  6.182E+00  1.404E-03  4.413E-03  1.269E-03
   1    4   73     1    73    2.1997E+01  5.6797E-03   2.1992E+01  0.000E+00  0.000E+00  0.000E+00  1.21795E+02  3.545E+00  6.181E+00  1.404E-03  4.413E-03  1.266E-03
   1    4   74     1    74    2.1992E+01  5.6783E-03   2.1986E+01  0.000E+00  0.000E+00  0.000E+00  1.21495E+02  3.545E+00  6.179E+00  1.404E-03  4.415E-03  1.264E-03
   1    4   75     1    75    2.1986E+01  5.6769E-03   2.1980E+01  0.000E+00  0.000E+00  0.000E+00  1.21194E+02  3.544E+00  6.178E+00  1.404E-03  4.417E-03  1.260E-03
   1    4   76     1    76    2.1980E+01  5.6756E-03   2.1975E+01  0.000E+00  0.000E+00  0.000E+00  1.20894E+02  3.544E+00  6.176E+00  1.403E-03  4.419E-03  1.256E-03
   1    4   77     1    77    2.1975E+01  5.6742E-03   2.1969E+01  0.000E+00  0.000E+00  0.000E+00  1.20594E+02  3.544E+00  6.175E+00  1.403E-03  4.422E-03  1.252E-03
   1    4   78     1    78    2.1969E+01  5.6728E-03   2.1963E+01  0.000E+00  0.000E+00  0.000E+00  1.20293E+02  3.543E+00  6.174E+00  1.403E-03  4.425E-03  1.247E-03
   1    4   79     1    79    2.1963E+01  5.6714E-03   2.1958E+01  0.000E+00  0.000E+00  0.000E+00  1.19993E+02  3.543E+00  6.172E+00  1.403E-03  4.429E-03  1.242E-03
   1    4   80     1    80    2.1958E+01  5.6700E-03   2.1952E+01  0.000E+00  0.000E+00  0.000E+00  1.19693E+02  3.543E+00  6.171E+00  1.403E-03  4.433E-03  1.237E-03
   1    4   81     1    81    2.1952E+01  5.6686E-03   2.1946E+01  0.000E+00  0.000E+00  0.000E+00  1.19392E+02  3.542E+00  6.169E+00  1.402E-03  4.438E-03  1.231E-03
   1    4   82     1    82    2.1946E+01  5.6672E-03   2.1941E+01  0.000E+00  0.000E+00  0.000E+00  1.19092E+02  3.542E+00  6.168E+00  1.402E-03  4.442E-03  1.225E-03
   1    4   83     1    83    2.1941E+01  5.6659E-03   2.1935E+01  0.000E+00  0.000E+00  0.000E+00  1.18792E+02  3.542E+00  6.167E+00  1.402E-03  4.448E-03  1.218E-03
   1    4   84     1    84    2.1935E+01  5.6645E-03   2.1929E+01  0.000E+00  0.000E+00  0.000E+00  1.18491E+02  3.541E+00  6.165E+00  1.402E-03  4.453E-03  1.211E-03
   1    4   85     1    85    2.1929E+01  5.6631E-03   2.1924E+01  0.000E+00  0.000E+00  0.000E+00  1.18191E+02  3.541E+00  6.164E+00  1.401E-03  4.466E-03  1.197E-03
   1    4   86     1    86    2.1924E+01  5.6617E-03   2.1918E+01  0.000E+00  0.000E+00  0.000E+00  1.17891E+02  3.541E+00  6.162E+00  1.401E-03  4.473E-03  1.189E-03
   1    4   87     1    87    2.1918E+01  5.6603E-03   2.1912E+01  0.000E+00  0.000E+00  0.000E+00  1.17590E+02  3.540E+00  6.161E+00  1.401E-03  4.480E-03  1.180E-03
   1    4   88     1    88    2.1912E+01  5.6589E-03   2.1907E+01  0.000E+00  0.000E+00  0.000E+00  1.17290E+02  3.540E+00  6.160E+00  1.401E-03  4.488E-03  1.171E-03
   1    4   89     1    89    2.1907E+01  5.6576E-03   2.1901E+01  0.000E+00  0.000E+00  0.000E+00  1.16990E+02  3.540E+00  6.158E+00  1.401E-03  4.495E-03  1.162E-03
   1    4   90     1    90    2.1901E+01  5.6562E-03   2.1895E+01  0.000E+00  0.000E+00  0.000E+00  1.16689E+02  3.539E+00  6.157E+00  1.400E-03  4.503E-03  1.153E-03
   1    4   91     1    91    2.1895E+01  5.6548E-03   2.1890E+01  0.000E+00  0.000E+00  0.000E+00  1.16389E+02  3.539E+00  6.155E+00  1.400E-03  4.511E-03  1.143E-03
   1    4   92     1    92    2.1890E+01  5.6534E-03   2.1884E+01  0.000E+00  0.000E+00  0.000E+00  1.16088E+02  3.538E+00  6.154E+00  1.400E-03  4.519E-03  1.134E-03
   1    4   93     1    93    2.1884E+01  5.6520E-03   2.1878E+01  0.000E+00  0.000E+00  0.000E+00  1.15788E+02  3.538E+00  6.153E+00  1.400E-03  4.527E-03  1.125E-03
   1    4   94     1    94    2.1878E+01  5.6506E-03   2.1873E+01  0.000E+00  0.000E+00  0.000E+00  1.15488E+02  3.538E+00  6.151E+00  1.399E-03  4.535E-03  1.116E-03
   1    4   95     1    95    2.1873E+01  5.6493E-03   2.1867E+01  0.000E+00  0.000E+00  0.000E+00  1.15187E+02  3.537E+00  6.150E+00  1.399E-03  4.542E-03  1.107E-03
   1    4   96     1    96    2.1867E+01  5.6479E-03   2.1861E+01  0.000E+00  0.000E+00  0.000E+00  1.14887E+02  3.537E+00  6.148E+00  1.399E-03  4.549E-03  1.099E-03
   1    4   97     1    97    2.1861E+01  5.6465E-03   2.1856E+01  0.000E+00  0.000E+00  0.000E+00  1.14587E+02  3.537E+00  6.147E+00  1.399E-03  4.555E-03  1.092E-03
   1    4   98     1    98    2.1856E+01  5.6451E-03   2.1850E+01  0.000E+00  0.000E+00  0.000E+00  1.14286E+02  3.536E+00  6.145E+00  1.399E-03  4.560E-03  1.085E-03
   1    4   99     1    99    2.1850E+01  5.6437E-03   2.1845E+01  0.000E+00  0.000E+00  0.000E+00  1.13986E+02  3.536E+00  6.144E+00  1.398E-03  4.565E-03  1.078E-03
   1    4  100     1   100    2.1845E+01  5.6424E-03   2.1839E+01  0.000E+00  0.000E+00  0.000E+00  1.13686E+02  3.536E+00  6.143E+00  1.398E-03  4.570E-03  1.073E-03



1
  VOLUMETRIC BUDGET FOR UNSATURATED ZONE BENEATH STREAMS AT END OF TIME STEP    30 STRESS PERIOD  16
  ------------------------------------------------------------------------------------------------

    CUMULATIVE VOLUMES             L**3    RATES FOR THIS TIME STEP         L**3/T
    ------------------                     ------------------------


          STREAM LOSS =     15529661.0000            STREAM LOSS =            0.5711
    CHANGE IN STORAGE =      1917288.6250      CHANGE IN STORAGE =            0.1534
       RECHARGE TO GW =     13617132.0000         RECHARGE TO GW =            0.4177

             TOTAL IN =     15529661.0000               TOTAL IN =            0.5711

            TOTAL OUT =     15534421.0000              TOTAL OUT =            0.5711

             IN - OUT =        -4760.0000               IN - OUT =        1.7881E-07

  PERCENT DISCREPANCY =           -0.01      PERCENT DISCREPANCY =             0.00



1
  VOLUMETRIC BUDGET FOR ENTIRE MODEL AT END OF TIME STEP   30, STRESS PERIOD  16
  ------------------------------------------------------------------------------

     CUMULATIVE VOLUMES      L**3       RATES FOR THIS TIME STEP      L**3/T
     ------------------                 ------------------------

           IN:                                      IN:
           ---                                      ---
             STORAGE     =    77711176.0000               STORAGE     =           0.7075
       CONSTANT HEAD     =           0.0000         CONSTANT HEAD     =           0.0000
               WELLS     =           0.0000                 WELLS     =           0.0000
     HEAD DEP BOUNDS     =           0.0000       HEAD DEP BOUNDS     =           0.0000
      STREAM LEAKAGE     =    13617187.0000        STREAM LEAKAGE     =           0.4177

                TOTAL IN =    91328360.0000                  TOTAL IN =           1.1252

          OUT:                                     OUT:
          ----                                     ----
             STORAGE     =     2240851.0000               STORAGE     =       4.7848E-04
       CONSTANT HEAD     =           0.0000         CONSTANT HEAD     =           0.0000
               WELLS     =    74581672.0000                 WELLS     =           1.0204
     HEAD DEP BOUNDS     =    14505882.0000       HEAD DEP BOUNDS     =           0.1044
      STREAM LEAKAGE     =           0.0000        STREAM LEAKAGE     =           0.0000

               TOTAL OUT =    91328400.0000                 TOTAL OUT =           1.1252

                IN - OUT =         -40.0000                  IN - OUT =      -1.1921E-07

     PERCENT DISCREPANCY =          -0.00         PERCENT DISCREPANCY =          -0.00






         TIME SUMMARY AT END OF TIME STEP   30 IN STRESS PERIOD   16
                    SECONDS     MINUTES      HOURS       DAYS        YEARS
                    -----------------------------------------------------------
   TIME STEP LENGTH 2.49961E+05  4166.0      69.434      2.8931     7.92080E-03
 STRESS PERIOD TIME 2.59200E+06  43200.      720.00      30.000     8.21355E-02
         TOTAL TIME 4.14720E+07 6.91200E+05  11520.      480.00      1.3142    
1
1
                            STRESS PERIOD NO.   17, LENGTH =   2592000.    
                            -----------------------------------------------

                              NUMBER OF TIME STEPS =    30

                               MULTIPLIER FOR DELT =     1.100

                            INITIAL TIME STEP SIZE =   15757.40    

 REUSING NON-PARAMETER WELLS FROM LAST STRESS PERIOD

      1 WELL 

 REUSING NON-PARAMETER GHB CELLS FROM LAST STRESS PERIOD

      7 GHB CELLS



 CLASSIFICATION & COUNT OF STREAM SEGMENTS BASED ON SOURCE OF INFLOW:

                HEADWATER     DIVERSION     RECEIVES TRIBUTARY FLOW
                ---------     ---------     -----------------------
                     1              0               0



                    INPUT DATA FOR EACH STREAM SEGMENT
 ---------------------------------------------------------------------------------------------

 SEGMENT    SEG.     INFLOW   OVERLAND   STREAM    STREAM   ICALC  OUTFLOW  DIVERSION PRIORITY
    NO.    LENGTH     RATE     RUNOFF      ET       PPT.    METH.  TO SEG.  FROM SEG.    NO.

      1  2.000E+04 1.747E+01 0.000E+00 0.000E+00 0.000E+00    2        0        0        0


         STREAMBED PROPERTIES AND STREAM DIMENSIONS

 SEGMENT     BED HYD. COND.      BED THICKNESS     ELEV.-TOP OF BED     WIDTH OF STREAM     DEPTH OF STREAM    STREAM ROUGHNESS
    No.     UPPER     LOWER     UPPER     LOWER     UPPER     LOWER     UPPER     LOWER     UPPER     LOWER   CHANNEL      BANK

     1  3.500E-07 3.500E-07                                                                                 3.000E-02 4.000E-02

  EIGHT POINT CROSS-SECTION DATA FOR SEGMENTS WITH ICALC = 2
    X VALUES X VALUES START FROM LEFT SIDE LOOKING DOWNSTREAM

     SEGMENT NO.        X1        X2        X3        X4        X5        X6        X7        X8
            1      0.000E+00 2.000E+00 4.000E+00 6.000E+00 8.000E+00 1.000E+01 1.200E+01 1.400E+01

    Z VALUES ARE RELATIVE TO STREAMBED ELEVATION

     SEGMENT NO.          Z1        Z2        Z3        Z4        Z5        Z6        Z7        Z8
            1      6.000E+00 4.500E+00 3.500E+00 0.000E+00 3.000E-01 3.500E+00 4.500E+00 6.000E+00



 
 SOLVING FOR HEAD 
                                                   Max.-Head-Change                         Max.-Flux-Residual
  Residual-Control   Outer-Iter.   Inner-Iter.     Column Row Layer    Maximum-Head-Change  Column Row Layer    Maximum-Flux-Residual          L2-NORM 
          0                 1           2            50    3     1       0.6657784387E+00      50    3    1         0.2140157869E+00      0.2869283197E+00
          0                 2           2            50    3     1      -0.6241979783E-01      50    3    1        -0.2037829920E-01      0.2778362411E-01
          0                 3           2            50    3     1       0.5607658975E-02      50    3    1         0.1847859129E-02      0.2515329673E-02
          0                 4           2            50    3     1      -0.4447783310E-03      50    3    1        -0.1479041468E-03      0.2014063231E-03
          0                 5           1            50    3     1       0.3098610040E-04      50    3    1         0.1039821991E-04      0.1416034050E-04
          0                 6           1            50    3     1      -0.1860617666E-05      50    3    1        -0.6300873199E-06      0.8580686032E-06
          0                 7           1            50    3     1       0.9401463774E-07      50    3    1         0.3212821931E-07      0.4375292305E-07

    ------------------------------------------------
       NWT REQUIRED            7 OUTER ITERATIONS 
       AND A TOTAL OF         11 INNER ITERATIONS.
    ------------------------------------------------

 NO OUTPUT CONTROL FOR STRESS PERIOD   17   TIME STEP    1
 
 WELLS WITH REDUCED PUMPING FOR STRESS PERIOD    17 TIME STEP     1
   LAY   ROW   COL         APPL.Q          ACT.Q        GW-HEAD       CELL-BOT
     1     3    50  -0.520299E+00  -0.368075E+00   0.719167E+01   0.000000E+00
     1     5    55  -0.520299E+00  -0.326545E+00   0.650371E+01   0.000000E+00
 
 
 SOLVING FOR HEAD 
                                                   Max.-Head-Change                         Max.-Flux-Residual
  Residual-Control   Outer-Iter.   Inner-Iter.     Column Row Layer    Maximum-Head-Change  Column Row Layer    Maximum-Flux-Residual          L2-NORM 
          0                 1           2            50    3     1       0.4781554306E+00      50    3    1         0.1392690490E+00      0.1892466412E+00
          0                 2           2            50    3     1      -0.4390776942E-01      50    3    1        -0.1319464727E-01      0.1818042118E-01
          0                 3           2            50    3     1       0.3938780417E-02      50    3    1         0.1195752853E-02      0.1646576995E-02
          0                 4           2            50    3     1      -0.3124051579E-03      50    3    1        -0.9571454565E-04      0.1318962187E-03
          0                 5           1            50    3     1       0.2176465547E-04      50    3    1         0.6729076928E-05      0.9274493483E-05
          0                 6           1            50    3     1      -0.1306887913E-05      50    3    1        -0.4077523813E-06      0.5620277032E-06
          0                 7           1            50    3     1       0.6603550420E-07      50    3    1         0.2079134026E-07      0.2865811294E-07

    ------------------------------------------------
       NWT REQUIRED            7 OUTER ITERATIONS 
       AND A TOTAL OF         11 INNER ITERATIONS.
    ------------------------------------------------

 NO OUTPUT CONTROL FOR STRESS PERIOD   17   TIME STEP    2
 
 WELLS WITH REDUCED PUMPING FOR STRESS PERIOD    17 TIME STEP     2
   LAY   ROW   COL         APPL.Q          ACT.Q        GW-HEAD       CELL-BOT
     1     3    50  -0.519966E+00  -0.395130E+00   0.762957E+01   0.000000E+00
     1     5    55  -0.519966E+00  -0.352149E+00   0.688758E+01   0.000000E+00
 
 
 SOLVING FOR HEAD 
                                                   Max.-Head-Change                         Max.-Flux-Residual
  Residual-Control   Outer-Iter.   Inner-Iter.     Column Row Layer    Maximum-Head-Change  Column Row Layer    Maximum-Flux-Residual          L2-NORM 
          0                 1           2            50    3     1       0.3463793026E+00      50    3    1         0.9089120872E-01      0.1278798489E+00
          0                 2           2            50    3     1      -0.3132048576E-01      50    3    1        -0.8627720190E-02      0.1221606567E-01
          0                 3           2            50    3     1       0.2799865864E-02      50    3    1         0.7811855336E-03      0.1107837092E-02
          0                 4           2            50    3     1      -0.2220918807E-03      50    3    1        -0.6253553142E-04      0.8882391927E-04
          0                 5           1            50    3     1       0.1547242191E-04      50    3    1         0.4396435134E-05      0.6248087090E-05
          0                 6           1            50    3     1      -0.9290648764E-06      50    3    1        -0.2664045516E-06      0.3786749406E-06

    ------------------------------------------------
       NWT REQUIRED            6 OUTER ITERATIONS 
       AND A TOTAL OF         10 INNER ITERATIONS.
    ------------------------------------------------

 NO OUTPUT CONTROL FOR STRESS PERIOD   17   TIME STEP    3
 
 WELLS WITH REDUCED PUMPING FOR STRESS PERIOD    17 TIME STEP     3
   LAY   ROW   COL         APPL.Q          ACT.Q        GW-HEAD       CELL-BOT
     1     3    50  -0.520042E+00  -0.413928E+00   0.794722E+01   0.000000E+00
     1     5    55  -0.520042E+00  -0.370121E+00   0.716202E+01   0.000000E+00
 
 
 SOLVING FOR HEAD 
                                                   Max.-Head-Change                         Max.-Flux-Residual
  Residual-Control   Outer-Iter.   Inner-Iter.     Column Row Layer    Maximum-Head-Change  Column Row Layer    Maximum-Flux-Residual          L2-NORM 
          0                 1           2            50    3     1       0.2552107838E+00      50    3    1         0.6003262526E-01      0.9046181116E-01
          0                 2           2            50    3     1      -0.2275929792E-01      50    3    1        -0.5719551184E-02      0.8599678694E-02
          0                 3           2            50    3     1       0.2024433558E-02      50    3    1         0.5174254299E-03      0.7820918272E-03
          0                 4           2            50    3     1      -0.1605623122E-03      50    3    1        -0.4142444830E-04      0.6282967064E-04
          0                 5           1            50    3     1       0.1118588720E-04      50    3    1         0.2912244661E-05      0.4423313648E-05
          0                 6           1            50    3     1      -0.6716714668E-06      50    3    1        -0.1764686424E-06      0.2681630287E-06

    ------------------------------------------------
       NWT REQUIRED            6 OUTER ITERATIONS 
       AND A TOTAL OF         10 INNER ITERATIONS.
    ------------------------------------------------

 NO OUTPUT CONTROL FOR STRESS PERIOD   17   TIME STEP    4
 
 WELLS WITH REDUCED PUMPING FOR STRESS PERIOD    17 TIME STEP     4
   LAY   ROW   COL         APPL.Q          ACT.Q        GW-HEAD       CELL-BOT
     1     3    50  -0.519973E+00  -0.427028E+00   0.818155E+01   0.000000E+00
     1     5    55  -0.519973E+00  -0.382672E+00   0.736020E+01   0.000000E+00
 
 
 SOLVING FOR HEAD 
                                                   Max.-Head-Change                         Max.-Flux-Residual
  Residual-Control   Outer-Iter.   Inner-Iter.     Column Row Layer    Maximum-Head-Change  Column Row Layer    Maximum-Flux-Residual          L2-NORM 
          0                 1           2            50    3     1       0.1914237803E+00      50    3    1         0.4017023369E-01      0.6785834994E-01
          0                 2           2            50    3     1      -0.1684292529E-01      50    3    1        -0.3840576744E-02      0.6441068682E-02
          0                 3           2            50    3     1       0.1488929529E-02      50    3    1         0.3472011876E-03      0.5884134972E-03
          0                 4           2            50    3     1      -0.1180296133E-03      50    3    1        -0.2779843096E-04      0.4743510179E-04
          0                 5           1            50    3     1       0.8222843358E-05      50    3    1         0.1954292940E-05      0.3344993542E-05
          0                 6           1            50    3     1      -0.4937483593E-06      50    3    1        -0.1184203727E-06      0.2029229322E-06

    ------------------------------------------------
       NWT REQUIRED            6 OUTER ITERATIONS 
       AND A TOTAL OF         10 INNER ITERATIONS.
    ------------------------------------------------

 NO OUTPUT CONTROL FOR STRESS PERIOD   17   TIME STEP    5
 
 WELLS WITH REDUCED PUMPING FOR STRESS PERIOD    17 TIME STEP     5
   LAY   ROW   COL         APPL.Q          ACT.Q        GW-HEAD       CELL-BOT
     1     3    50  -0.520036E+00  -0.436549E+00   0.835750E+01   0.000000E+00
     1     5    55  -0.520036E+00  -0.391728E+00   0.750508E+01   0.000000E+00
 
 
 SOLVING FOR HEAD 
                                                   Max.-Head-Change                         Max.-Flux-Residual
  Residual-Control   Outer-Iter.   Inner-Iter.     Column Row Layer    Maximum-Head-Change  Column Row Layer    Maximum-Flux-Residual          L2-NORM 
          0                 1           2            50    3     1       0.1474728065E+00      50    3    1         0.2751279169E-01      0.5448355351E-01
          0                 2           2            50    3     1      -0.1281092031E-01      50    3    1        -0.2636840085E-02      0.5189543706E-02
          0                 3           2            50    3     1       0.1124578860E-02      50    3    1         0.2382655876E-03      0.4768396510E-03
          0                 4           1            50    3     1      -0.8905598511E-04      50    3    1        -0.1907751057E-04      0.3863517525E-04
          0                 5           1            50    3     1       0.6204044805E-05      50    3    1         0.1341151231E-05      0.2731545227E-05
          0                 6           1            50    3     1      -0.3725247823E-06      50    3    1        -0.8126613099E-07      0.1658988230E-06

    ------------------------------------------------
       NWT REQUIRED            6 OUTER ITERATIONS 
       AND A TOTAL OF          9 INNER ITERATIONS.
    ------------------------------------------------

 NO OUTPUT CONTROL FOR STRESS PERIOD   17   TIME STEP    6
 
 WELLS WITH REDUCED PUMPING FOR STRESS PERIOD    17 TIME STEP     6
   LAY   ROW   COL         APPL.Q          ACT.Q        GW-HEAD       CELL-BOT
     1     3    50  -0.519970E+00  -0.443538E+00   0.849321E+01   0.000000E+00
     1     5    55  -0.519970E+00  -0.398297E+00   0.761348E+01   0.000000E+00
 
 
 SOLVING FOR HEAD 
                                                   Max.-Head-Change                         Max.-Flux-Residual
  Residual-Control   Outer-Iter.   Inner-Iter.     Column Row Layer    Maximum-Head-Change  Column Row Layer    Maximum-Flux-Residual          L2-NORM 
          0                 1           2            50    3     1       0.1162848730E+00      50    3    1         0.1921267821E-01      0.4639689485E-01
          0                 2           2            50    3     1      -0.9980432937E-02      50    3    1        -0.1843985040E-02      0.4452885417E-02
          0                 3           2            50    3     1       0.8693931720E-03      50    3    1         0.1665723678E-03      0.4117353869E-03
          0                 4           1            50    3     1      -0.6873751443E-04      50    3    1        -0.1333759288E-04      0.3355682468E-04
          0                 5           1            50    3     1       0.4787934033E-05      50    3    1         0.9376092016E-06      0.2380300973E-05
          0                 6           1            50    3     1      -0.2874926586E-06      50    3    1        -0.5681279897E-07      0.1447893654E-06

    ------------------------------------------------
       NWT REQUIRED            6 OUTER ITERATIONS 
       AND A TOTAL OF          9 INNER ITERATIONS.
    ------------------------------------------------

 NO OUTPUT CONTROL FOR STRESS PERIOD   17   TIME STEP    7
 
 WELLS WITH REDUCED PUMPING FOR STRESS PERIOD    17 TIME STEP     7
   LAY   ROW   COL         APPL.Q          ACT.Q        GW-HEAD       CELL-BOT
     1     3    50  -0.520015E+00  -0.448970E+00   0.860032E+01   0.000000E+00
     1     5    55  -0.520015E+00  -0.403315E+00   0.769631E+01   0.000000E+00
 
 
 SOLVING FOR HEAD 
                                                   Max.-Head-Change                         Max.-Flux-Residual
  Residual-Control   Outer-Iter.   Inner-Iter.     Column Row Layer    Maximum-Head-Change  Column Row Layer    Maximum-Flux-Residual          L2-NORM 
          0                 1           2            50    3     1       0.9448814575E-01      50    3    1         0.1380733957E-01      0.4140686175E-01
          0                 2           2            50    2     1      -0.8916971706E-02      50    3    1        -0.1325732202E-02      0.4008643396E-02
          0                 3           2            50    2     1       0.7918534869E-03      50    3    1         0.1197391021E-03      0.3728922591E-03
          0                 4           1            50    2     1      -0.6280667350E-04      50    3    1        -0.9587782804E-05      0.3057781215E-04
          0                 5           1            50    2     1       0.4374945921E-05      50    3    1         0.6739832480E-06      0.2177231999E-05
          0                 6           1            50    2     1      -0.2626997171E-06      50    3    1        -0.4083784583E-07      0.1326949441E-06

    ------------------------------------------------
       NWT REQUIRED            6 OUTER ITERATIONS 
       AND A TOTAL OF          9 INNER ITERATIONS.
    ------------------------------------------------

 NO OUTPUT CONTROL FOR STRESS PERIOD   17   TIME STEP    8
 
 WELLS WITH REDUCED PUMPING FOR STRESS PERIOD    17 TIME STEP     8
   LAY   ROW   COL         APPL.Q          ACT.Q        GW-HEAD       CELL-BOT
     1     3    50  -0.520022E+00  -0.453250E+00   0.868742E+01   0.000000E+00
     1     5    55  -0.520022E+00  -0.407198E+00   0.776155E+01   0.000000E+00
 
 
 SOLVING FOR HEAD 
                                                   Max.-Head-Change                         Max.-Flux-Residual
  Residual-Control   Outer-Iter.   Inner-Iter.     Column Row Layer    Maximum-Head-Change  Column Row Layer    Maximum-Flux-Residual          L2-NORM 
          0                 1           2            50    2     1       0.8517930623E-01      50    3    1         0.1024988621E-01      0.3816749114E-01
          0                 2           2            50    2     1      -0.8281476324E-02      50    3    1        -0.9837120300E-03      0.3719400557E-02
          0                 3           2            50    2     1       0.7347743201E-03      50    3    1         0.8884508434E-04      0.3479179473E-03
          0                 4           1            50    2     1      -0.5826199694E-04      50    3    1        -0.7114074786E-05      0.2870899199E-04
          0                 5           1            50    2     1       0.4058085490E-05      50    3    1         0.5000696113E-06      0.2052838965E-05
          0                 6           1            50    2     1      -0.2436706077E-06      50    3    1        -0.3029899071E-07      0.1254072837E-06

    ------------------------------------------------
       NWT REQUIRED            6 OUTER ITERATIONS 
       AND A TOTAL OF          9 INNER ITERATIONS.
    ------------------------------------------------

 NO OUTPUT CONTROL FOR STRESS PERIOD   17   TIME STEP    9
 
 WELLS WITH REDUCED PUMPING FOR STRESS PERIOD    17 TIME STEP     9
   LAY   ROW   COL         APPL.Q          ACT.Q        GW-HEAD       CELL-BOT
     1     3    50  -0.519978E+00  -0.456719E+00   0.876052E+01   0.000000E+00
     1     5    55  -0.519978E+00  -0.410289E+00   0.781467E+01   0.000000E+00
 
 
 SOLVING FOR HEAD 
                                                   Max.-Head-Change                         Max.-Flux-Residual
  Residual-Control   Outer-Iter.   Inner-Iter.     Column Row Layer    Maximum-Head-Change  Column Row Layer    Maximum-Flux-Residual          L2-NORM 
          0                 1           2            50    2     1       0.7908274222E-01      50    2    1         0.8268375353E-02      0.3590141820E-01
          0                 2           2            50    2     1      -0.7683471708E-02      50    2    1        -0.8304300629E-03      0.3514277537E-02
          0                 3           2            50    2     1       0.6810780145E-03      50    2    1         0.7469337261E-04      0.3304644278E-03
          0                 4           1            50    2     1      -0.5398376501E-04      50    2    1        -0.5983318751E-05      0.2744249398E-04
          0                 5           1            50    2     1       0.3759676376E-05      50    2    1         0.4206190917E-06      0.1971398452E-05
          0                 6           1            50    2     1      -0.2257470366E-06      50    2    1        -0.2548786654E-07      0.1207671034E-06

    ------------------------------------------------
       NWT REQUIRED            6 OUTER ITERATIONS 
       AND A TOTAL OF          9 INNER ITERATIONS.
    ------------------------------------------------

 NO OUTPUT CONTROL FOR STRESS PERIOD   17   TIME STEP   10
 
 WELLS WITH REDUCED PUMPING FOR STRESS PERIOD    17 TIME STEP    10
   LAY   ROW   COL         APPL.Q          ACT.Q        GW-HEAD       CELL-BOT
     1     3    50  -0.520012E+00  -0.459695E+00   0.882320E+01   0.000000E+00
     1     5    55  -0.520012E+00  -0.412897E+00   0.785890E+01   0.000000E+00
 
 
 SOLVING FOR HEAD 
                                                   Max.-Head-Change                         Max.-Flux-Residual
  Residual-Control   Outer-Iter.   Inner-Iter.     Column Row Layer    Maximum-Head-Change  Column Row Layer    Maximum-Flux-Residual          L2-NORM 
          0                 1           2            50    2     1       0.7361905478E-01      50    2    1         0.6979122467E-02      0.3424696314E-01
          0                 2           2            50    2     1      -0.7143599715E-02      50    2    1        -0.7008868710E-03      0.3368303249E-02
          0                 3           2            50    1     1       0.6326652052E-03      50    2    1         0.6304254830E-04      0.3184186715E-03
          0                 4           1            50    1     1      -0.5019323428E-04      50    2    1        -0.5050021475E-05      0.2660126985E-04
          0                 5           1            50    1     1       0.3495443083E-05      50    2    1         0.3550096151E-06      0.1919528854E-05
          0                 6           1            50    1     1      -0.2098438758E-06      50    2    1        -0.2151219025E-07      0.1179187690E-06

    ------------------------------------------------
       NWT REQUIRED            6 OUTER ITERATIONS 
       AND A TOTAL OF          9 INNER ITERATIONS.
    ------------------------------------------------

 NO OUTPUT CONTROL FOR STRESS PERIOD   17   TIME STEP   11
 
 WELLS WITH REDUCED PUMPING FOR STRESS PERIOD    17 TIME STEP    11
   LAY   ROW   COL         APPL.Q          ACT.Q        GW-HEAD       CELL-BOT
     1     3    50  -0.520017E+00  -0.462253E+00   0.887849E+01   0.000000E+00
     1     5    55  -0.520017E+00  -0.415101E+00   0.789690E+01   0.000000E+00
 
 
 SOLVING FOR HEAD 
                                                   Max.-Head-Change                         Max.-Flux-Residual
  Residual-Control   Outer-Iter.   Inner-Iter.     Column Row Layer    Maximum-Head-Change  Column Row Layer    Maximum-Flux-Residual          L2-NORM 
          0                 1           2            50    1     1       0.7082598159E-01      50    2    1         0.5906994157E-02      0.3294607742E-01
          0                 2           2            50    1     1      -0.6987556965E-02      50    2    1        -0.5930569994E-03      0.3248634477E-02
          0                 3           2            50    1     1       0.6217580311E-03      50    2    1         0.5334537182E-04      0.3087034592E-03
          0                 4           1            50    1     1      -0.4931957289E-04      50    2    1        -0.4273216185E-05      0.2595209039E-04
          0                 5           1            50    1     1       0.3434056227E-05      50    2    1         0.3004013430E-06      0.1881819183E-05
          0                 6           1            50    1     1      -0.2061369898E-06      50    2    1        -0.1820314188E-07      0.1159670435E-06

    ------------------------------------------------
       NWT REQUIRED            6 OUTER ITERATIONS 
       AND A TOTAL OF          9 INNER ITERATIONS.
    ------------------------------------------------

 NO OUTPUT CONTROL FOR STRESS PERIOD   17   TIME STEP   12
 
 WELLS WITH REDUCED PUMPING FOR STRESS PERIOD    17 TIME STEP    12
   LAY   ROW   COL         APPL.Q          ACT.Q        GW-HEAD       CELL-BOT
     1     3    50  -0.519980E+00  -0.464494E+00   0.892857E+01   0.000000E+00
     1     5    55  -0.519980E+00  -0.417005E+00   0.793051E+01   0.000000E+00
 
 
 SOLVING FOR HEAD 
                                                   Max.-Head-Change                         Max.-Flux-Residual
  Residual-Control   Outer-Iter.   Inner-Iter.     Column Row Layer    Maximum-Head-Change  Column Row Layer    Maximum-Flux-Residual          L2-NORM 
          0                 1           2            50    1     1       0.6876107227E-01      50    1    1         0.5158025663E-02      0.3187998754E-01
          0                 2           2            50    1     1      -0.6779889294E-02      50    1    1        -0.5172971120E-03      0.3147615594E-02
          0                 3           2            50    1     1       0.6029874240E-03      50    1    1         0.4654064835E-04      0.3007101141E-03
          0                 4           1            50    1     1      -0.4781955457E-04      50    1    1        -0.3728038392E-05      0.2544553545E-04
          0                 5           1            50    1     1       0.3328851021E-05      50    1    1         0.2619164674E-06      0.1854608355E-05
          0                 6           1            50    1     1      -0.1997919925E-06      50    1    1        -0.1586208265E-07      0.1146853527E-06

    ------------------------------------------------
       NWT REQUIRED            6 OUTER ITERATIONS 
       AND A TOTAL OF          9 INNER ITERATIONS.
    ------------------------------------------------

 NO OUTPUT CONTROL FOR STRESS PERIOD   17   TIME STEP   13
 
 WELLS WITH REDUCED PUMPING FOR STRESS PERIOD    17 TIME STEP    13
   LAY   ROW   COL         APPL.Q          ACT.Q        GW-HEAD       CELL-BOT
     1     3    50  -0.519984E+00  -0.466552E+00   0.897453E+01   0.000000E+00
     1     5    55  -0.519984E+00  -0.418729E+00   0.796061E+01   0.000000E+00
 
 
 SOLVING FOR HEAD 
                                                   Max.-Head-Change                         Max.-Flux-Residual
  Residual-Control   Outer-Iter.   Inner-Iter.     Column Row Layer    Maximum-Head-Change  Column Row Layer    Maximum-Flux-Residual          L2-NORM 
          0                 1           2            50    1     1       0.6610680898E-01      50    1    1         0.4552649193E-02      0.3099121082E-01
          0                 2           2            50    1     1      -0.6511981566E-02      50    1    1        -0.4566759160E-03      0.3069725528E-02
          0                 3           2            50    1     1       0.5788123775E-03      50    1    1         0.4108561874E-04      0.2947493526E-03
          0                 4           1            50    1     1      -0.4588795795E-04      50    1    1        -0.3291083509E-05      0.2509065617E-04
          0                 5           1            50    1     1       0.3193362839E-05      50    1    1         0.2311561017E-06      0.1837755509E-05
          0                 6           1            50    1     1      -0.1916208430E-06      50    1    1        -0.1399597604E-07      0.1140406603E-06

    ------------------------------------------------
       NWT REQUIRED            6 OUTER ITERATIONS 
       AND A TOTAL OF          9 INNER ITERATIONS.
    ------------------------------------------------

 NO OUTPUT CONTROL FOR STRESS PERIOD   17   TIME STEP   14
 
 WELLS WITH REDUCED PUMPING FOR STRESS PERIOD    17 TIME STEP    14
   LAY   ROW   COL         APPL.Q          ACT.Q        GW-HEAD       CELL-BOT
     1     3    50  -0.520011E+00  -0.468458E+00   0.901727E+01   0.000000E+00
     1     5    55  -0.520011E+00  -0.420304E+00   0.798792E+01   0.000000E+00
 
 
 SOLVING FOR HEAD 
                                                   Max.-Head-Change                         Max.-Flux-Residual
  Residual-Control   Outer-Iter.   Inner-Iter.     Column Row Layer    Maximum-Head-Change  Column Row Layer    Maximum-Flux-Residual          L2-NORM 
          0                 1           2            50    1     1       0.6311062446E-01      50    1    1         0.3979365845E-02      0.3018819901E-01
          0                 2           2            50    1     1      -0.6208469310E-02      50    1    1        -0.3991795500E-03      0.2991390459E-02
          0                 3           2            50    1     1       0.5514199785E-03      50    1    1         0.3591265838E-04      0.2887390741E-03
          0                 4           1            50    1     1      -0.4369784567E-04      50    1    1        -0.2876715766E-05      0.2474346291E-04
          0                 5           1            50    1     1       0.3039575020E-05      50    1    1         0.2019757180E-06      0.1822264173E-05
          0                 6           1            50    1     1      -0.1823402347E-06      50    1    1        -0.1222531176E-07      0.1135214670E-06

    ------------------------------------------------
       NWT REQUIRED            6 OUTER ITERATIONS 
       AND A TOTAL OF          9 INNER ITERATIONS.
    ------------------------------------------------

 NO OUTPUT CONTROL FOR STRESS PERIOD   17   TIME STEP   15
 
 WELLS WITH REDUCED PUMPING FOR STRESS PERIOD    17 TIME STEP    15
   LAY   ROW   COL         APPL.Q          ACT.Q        GW-HEAD       CELL-BOT
     1     3    50  -0.520011E+00  -0.470214E+00   0.905773E+01   0.000000E+00
     1     5    55  -0.520011E+00  -0.421734E+00   0.801320E+01   0.000000E+00
 
 
 SOLVING FOR HEAD 
                                                   Max.-Head-Change                         Max.-Flux-Residual
  Residual-Control   Outer-Iter.   Inner-Iter.     Column Row Layer    Maximum-Head-Change  Column Row Layer    Maximum-Flux-Residual          L2-NORM 
          0                 1           2            50    1     1       0.5996103321E-01      50    1    1         0.3454082887E-02      0.2951358520E-01
          0                 2           2            50    1     1      -0.5888477173E-02      50    1    1        -0.3464495845E-03      0.2928741007E-02
          0                 3           2            50    1     1       0.5225086407E-03      50    1    1         0.3116900567E-04      0.2841780197E-03
          0                 4           1            50    1     1      -0.4138364224E-04      50    1    1        -0.2496732968E-05      0.2450733454E-04
          0                 5           1            50    1     1       0.2876806263E-05      77    4    1         0.1818872217E-06      0.1814230012E-05
          0                 6           1            50    1     1      -0.1725090528E-06      77    4    1        -0.1176964837E-07      0.1134503803E-06

    ------------------------------------------------
       NWT REQUIRED            6 OUTER ITERATIONS 
       AND A TOTAL OF          9 INNER ITERATIONS.
    ------------------------------------------------

 NO OUTPUT CONTROL FOR STRESS PERIOD   17   TIME STEP   16
 
 WELLS WITH REDUCED PUMPING FOR STRESS PERIOD    17 TIME STEP    16
   LAY   ROW   COL         APPL.Q          ACT.Q        GW-HEAD       CELL-BOT
     1     3    50  -0.520011E+00  -0.471868E+00   0.909638E+01   0.000000E+00
     1     5    55  -0.520011E+00  -0.423060E+00   0.803676E+01   0.000000E+00
 
 
 SOLVING FOR HEAD 
                                                   Max.-Head-Change                         Max.-Flux-Residual
  Residual-Control   Outer-Iter.   Inner-Iter.     Column Row Layer    Maximum-Head-Change  Column Row Layer    Maximum-Flux-Residual          L2-NORM 
          0                 1           2            50    1     1       0.5680451549E-01      50    1    1         0.2983852944E-02      0.2912356988E-01
          0                 2           2            50    1     1      -0.5566695750E-02      50    1    1        -0.2992213800E-03      0.2864685048E-02
          0                 3           2            50    1     1       0.4933835176E-03      50    1    1         0.2692053966E-04      0.2788029209E-03
          0                 4           1            50    1     1      -0.3904835643E-04      76    4    1        -0.2345123526E-05      0.2422179499E-04
          0                 5           1            50    1     1       0.2711993071E-05      76    4    1         0.1911677536E-06      0.1804974600E-05
          0                 6           1            50    1     1      -0.1625341319E-06      76    4    1        -0.1249575021E-07      0.1134354123E-06

    ------------------------------------------------
       NWT REQUIRED            6 OUTER ITERATIONS 
       AND A TOTAL OF          9 INNER ITERATIONS.
    ------------------------------------------------

 NO OUTPUT CONTROL FOR STRESS PERIOD   17   TIME STEP   17
 
 WELLS WITH REDUCED PUMPING FOR STRESS PERIOD    17 TIME STEP    17
   LAY   ROW   COL         APPL.Q          ACT.Q        GW-HEAD       CELL-BOT
     1     3    50  -0.519994E+00  -0.473426E+00   0.913366E+01   0.000000E+00
     1     5    55  -0.519994E+00  -0.424290E+00   0.805896E+01   0.000000E+00
 
 
 SOLVING FOR HEAD 
                                                   Max.-Head-Change                         Max.-Flux-Residual
  Residual-Control   Outer-Iter.   Inner-Iter.     Column Row Layer    Maximum-Head-Change  Column Row Layer    Maximum-Flux-Residual          L2-NORM 
          0                 1           2            51    1     1       0.5714799761E-01      50    1    1         0.2570308014E-02      0.2873943895E-01
          0                 2           2            51    1     1      -0.5580676945E-02      50    1    1        -0.2576792067E-03      0.2833754750E-02
          0                 3           2            51    1     1       0.4937332723E-03      50    1    1         0.2318363915E-04      0.2774351964E-03
          0                 4           1            51    1     1      -0.3905804014E-04      75    4    1        -0.2394870222E-05      0.2427042254E-04
          0                 5           1            51    1     1       0.2714798623E-05      75    4    1         0.1973616577E-06      0.1818631398E-05
          0                 6           1            51    1     1      -0.1628290551E-06      75    4    1        -0.1300806396E-07      0.1147762981E-06

    ------------------------------------------------
       NWT REQUIRED            6 OUTER ITERATIONS 
       AND A TOTAL OF          9 INNER ITERATIONS.
    ------------------------------------------------

 NO OUTPUT CONTROL FOR STRESS PERIOD   17   TIME STEP   18
 
 WELLS WITH REDUCED PUMPING FOR STRESS PERIOD    17 TIME STEP    18
   LAY   ROW   COL         APPL.Q          ACT.Q        GW-HEAD       CELL-BOT
     1     3    50  -0.519991E+00  -0.474922E+00   0.916966E+01   0.000000E+00
     1     5    55  -0.519991E+00  -0.425452E+00   0.807982E+01   0.000000E+00
 
 
 SOLVING FOR HEAD 
                                                   Max.-Head-Change                         Max.-Flux-Residual
  Residual-Control   Outer-Iter.   Inner-Iter.     Column Row Layer    Maximum-Head-Change  Column Row Layer    Maximum-Flux-Residual          L2-NORM 
          0                 1           2            51    1     1       0.5797742976E-01      51    1    1         0.2351552683E-02      0.2839766749E-01
          0                 2           2            51    1     1      -0.5648506414E-02      51    1    1        -0.2357934601E-03      0.2810033308E-02
          0                 3           2            51    1     1       0.4988616831E-03      51    1    1         0.2121358776E-04      0.2765569374E-03
          0                 4           1            51    1     1      -0.3942222723E-04      74    4    1        -0.2392212524E-05      0.2433989063E-04
          0                 5           1            51    1     1       0.2737429275E-05      74    4    1         0.2027162349E-06      0.1832661445E-05
          0                 6           1            51    1     1      -0.1640993241E-06      74    4    1        -0.1360747959E-07      0.1161091608E-06

    ------------------------------------------------
       NWT REQUIRED            6 OUTER ITERATIONS 
       AND A TOTAL OF          9 INNER ITERATIONS.
    ------------------------------------------------

 NO OUTPUT CONTROL FOR STRESS PERIOD   17   TIME STEP   19
 
 WELLS WITH REDUCED PUMPING FOR STRESS PERIOD    17 TIME STEP    19
   LAY   ROW   COL         APPL.Q          ACT.Q        GW-HEAD       CELL-BOT
     1     3    50  -0.519989E+00  -0.476353E+00   0.920457E+01   0.000000E+00
     1     5    55  -0.519989E+00  -0.426543E+00   0.809949E+01   0.000000E+00
 
 
 SOLVING FOR HEAD 
                                                   Max.-Head-Change                         Max.-Flux-Residual
  Residual-Control   Outer-Iter.   Inner-Iter.     Column Row Layer    Maximum-Head-Change  Column Row Layer    Maximum-Flux-Residual          L2-NORM 
          0                 1           2            51    1     1       0.5854038014E-01      51    1    1         0.2169267278E-02      0.2808815024E-01
          0                 2           2            51    1     1      -0.5687754943E-02      51    1    1        -0.2175602836E-03      0.2784091155E-02
          0                 3           2            51    1     1       0.5013015092E-03      74    4    1         0.2281263234E-04      0.2752214169E-03
          0                 4           1            51    1     1      -0.3956318834E-04      73    4    1        -0.2521131167E-05      0.2436035962E-04
          0                 5           1            51    1     1       0.2743615262E-05      73    4    1         0.2125632328E-06      0.1842390745E-05
          0                 6           1            51    1     1      -0.1643531953E-06      73    4    1        -0.1425192231E-07      0.1171553341E-06

    ------------------------------------------------
       NWT REQUIRED            6 OUTER ITERATIONS 
       AND A TOTAL OF          9 INNER ITERATIONS.
    ------------------------------------------------

 NO OUTPUT CONTROL FOR STRESS PERIOD   17   TIME STEP   20
 
 WELLS WITH REDUCED PUMPING FOR STRESS PERIOD    17 TIME STEP    20
   LAY   ROW   COL         APPL.Q          ACT.Q        GW-HEAD       CELL-BOT
     1     3    50  -0.520006E+00  -0.477739E+00   0.923839E+01   0.000000E+00
     1     5    55  -0.520006E+00  -0.427578E+00   0.811795E+01   0.000000E+00
 
 
 SOLVING FOR HEAD 
                                                   Max.-Head-Change                         Max.-Flux-Residual
  Residual-Control   Outer-Iter.   Inner-Iter.     Column Row Layer    Maximum-Head-Change  Column Row Layer    Maximum-Flux-Residual          L2-NORM 
          0                 1           2            69    4     1      -0.5977127420E-01      51    1    1         0.1991710665E-02      0.2780959685E-01
          0                 2           2            51    1     1      -0.5707346647E-02      51    1    1        -0.1997674599E-03      0.2758387009E-02
          0                 3           2            51    1     1       0.5018425930E-03      73    4    1         0.2385670984E-04      0.2737127524E-03
          0                 4           1            51    1     1      -0.3954239047E-04      72    4    1        -0.2647608865E-05      0.2436317173E-04
          0                 5           1            51    1     1       0.2737315592E-05      72    4    1         0.2242378443E-06      0.1850597463E-05
          0                 6           1            51    1     1      -0.1638155595E-06      72    4    1        -0.1512645831E-07      0.1181045886E-06

    ------------------------------------------------
       NWT REQUIRED            6 OUTER ITERATIONS 
       AND A TOTAL OF          9 INNER ITERATIONS.
    ------------------------------------------------

 NO OUTPUT CONTROL FOR STRESS PERIOD   17   TIME STEP   21
 
 WELLS WITH REDUCED PUMPING FOR STRESS PERIOD    17 TIME STEP    21
   LAY   ROW   COL         APPL.Q          ACT.Q        GW-HEAD       CELL-BOT
     1     3    50  -0.520000E+00  -0.479057E+00   0.927149E+01   0.000000E+00
     1     5    55  -0.520000E+00  -0.428539E+00   0.813548E+01   0.000000E+00
 
 
 SOLVING FOR HEAD 
                                                   Max.-Head-Change                         Max.-Flux-Residual
  Residual-Control   Outer-Iter.   Inner-Iter.     Column Row Layer    Maximum-Head-Change  Column Row Layer    Maximum-Flux-Residual          L2-NORM 
          0                 1           2            69    1     1      -0.6440037658E-01      69    3    1        -0.1863292358E-02      0.2760880317E-01
          0                 2           2            69    1     1       0.5767789299E-02      69    3    1         0.1862664003E-03      0.2729900430E-02
          0                 3           2            51    1     1       0.5011625129E-03      72    4    1         0.2417566590E-04      0.2717988279E-03
          0                 4           1            51    1     1      -0.3941227356E-04      71    4    1        -0.2684487253E-05      0.2434214775E-04
          0                 5           1            51    1     1       0.2721927155E-05      71    4    1         0.2246062252E-06      0.1857073290E-05
          0                 6           1            51    1     1      -0.1626885105E-06      71    4    1        -0.1505395630E-07      0.1189490823E-06

    ------------------------------------------------
       NWT REQUIRED            6 OUTER ITERATIONS 
       AND A TOTAL OF          9 INNER ITERATIONS.
    ------------------------------------------------

 NO OUTPUT CONTROL FOR STRESS PERIOD   17   TIME STEP   22
 
 WELLS WITH REDUCED PUMPING FOR STRESS PERIOD    17 TIME STEP    22
   LAY   ROW   COL         APPL.Q          ACT.Q        GW-HEAD       CELL-BOT
     1     3    50  -0.519996E+00  -0.480332E+00   0.930391E+01   0.000000E+00
     1     5    55  -0.519996E+00  -0.429449E+00   0.815210E+01   0.000000E+00
 
 
 SOLVING FOR HEAD 
                                                   Max.-Head-Change                         Max.-Flux-Residual
  Residual-Control   Outer-Iter.   Inner-Iter.     Column Row Layer    Maximum-Head-Change  Column Row Layer    Maximum-Flux-Residual          L2-NORM 
          0                 1           2            68    1     1      -0.6970670862E-01      69    3    1        -0.1831059128E-02      0.2744313977E-01
          0                 2           2            68    1     1       0.6221590404E-02      69    3    1         0.1830249137E-03      0.2709122746E-02
          0                 3           2            68    1     1      -0.5059298509E-03      70    4    1         0.2717082424E-04      0.2707203847E-03
          0                 4           1            51    1     1      -0.3922090393E-04      70    4    1        -0.2977566556E-05      0.2438368056E-04
          0                 5           1            51    1     1       0.2700293724E-05      70    4    1         0.2485988748E-06      0.1866799252E-05
          0                 6           1            51    1     1      -0.1611227059E-06      70    4    1        -0.1659608451E-07      0.1199431847E-06

    ------------------------------------------------
       NWT REQUIRED            6 OUTER ITERATIONS 
       AND A TOTAL OF          9 INNER ITERATIONS.
    ------------------------------------------------

 NO OUTPUT CONTROL FOR STRESS PERIOD   17   TIME STEP   23
 
 WELLS WITH REDUCED PUMPING FOR STRESS PERIOD    17 TIME STEP    23
   LAY   ROW   COL         APPL.Q          ACT.Q        GW-HEAD       CELL-BOT
     1     3    50  -0.519993E+00  -0.481572E+00   0.933584E+01   0.000000E+00
     1     5    55  -0.519993E+00  -0.430315E+00   0.816797E+01   0.000000E+00
 
 
 SOLVING FOR HEAD 
                                                   Max.-Head-Change                         Max.-Flux-Residual
  Residual-Control   Outer-Iter.   Inner-Iter.     Column Row Layer    Maximum-Head-Change  Column Row Layer    Maximum-Flux-Residual          L2-NORM 
          0                 1           3            68    1     1      -0.7484404104E-01      68    3    1        -0.1796849628E-02      0.2733830979E-01
          0                 2           2            67    1     1       0.6652971491E-02      68    3    1         0.1795934921E-03      0.2697989113E-02
          0                 3           2            67    1     1      -0.5390442442E-03      69    4    1         0.2741260551E-04      0.2703240116E-03
          0                 4           1            67    1     1       0.3939040257E-04      69    4    1        -0.2992566662E-05      0.2446313024E-04
          0                 5           1            51    1     1       0.2675058886E-05      69    4    1         0.2439933429E-06      0.1877351088E-05
          0                 6           1            51    1     1      -0.1592958817E-06      70    4    1        -0.1630962032E-07      0.1209358697E-06

    ------------------------------------------------
       NWT REQUIRED            6 OUTER ITERATIONS 
       AND A TOTAL OF         10 INNER ITERATIONS.
    ------------------------------------------------

 NO OUTPUT CONTROL FOR STRESS PERIOD   17   TIME STEP   24
 
 WELLS WITH REDUCED PUMPING FOR STRESS PERIOD    17 TIME STEP    24
   LAY   ROW   COL         APPL.Q          ACT.Q        GW-HEAD       CELL-BOT
     1     3    50  -0.519998E+00  -0.482789E+00   0.936744E+01   0.000000E+00
     1     5    55  -0.519998E+00  -0.431152E+00   0.818324E+01   0.000000E+00
 
 
 SOLVING FOR HEAD 
                                                   Max.-Head-Change                         Max.-Flux-Residual
  Residual-Control   Outer-Iter.   Inner-Iter.     Column Row Layer    Maximum-Head-Change  Column Row Layer    Maximum-Flux-Residual          L2-NORM 
          0                 1           3            67    1     1      -0.8001481810E-01      68    1    1        -0.1753133227E-02      0.2722576465E-01
          0                 2           2            67    1     1       0.7064896137E-02      68    1    1         0.1752077379E-03      0.2686049708E-02
          0                 3           2            67    1     1      -0.5684136190E-03      68    4    1         0.2766746178E-04      0.2697982321E-03
          0                 4           1            66    1     1       0.4133949751E-04      68    4    1        -0.3005664320E-05      0.2452540843E-04
          0                 5           1            52    1     1       0.2743225938E-05      68    4    1         0.2508385890E-06      0.1885201499E-05
          0                 6           1            52    1     1      -0.1620386982E-06      68    4    1        -0.1680905726E-07      0.1216974930E-06

    ------------------------------------------------
       NWT REQUIRED            6 OUTER ITERATIONS 
       AND A TOTAL OF         10 INNER ITERATIONS.
    ------------------------------------------------

 NO OUTPUT CONTROL FOR STRESS PERIOD   17   TIME STEP   25
 
 WELLS WITH REDUCED PUMPING FOR STRESS PERIOD    17 TIME STEP    25
   LAY   ROW   COL         APPL.Q          ACT.Q        GW-HEAD       CELL-BOT
     1     3    50  -0.520006E+00  -0.484023E+00   0.939984E+01   0.000000E+00
     1     5    55  -0.520006E+00  -0.432005E+00   0.819881E+01   0.000000E+00
 
 
 SOLVING FOR HEAD 
                                                   Max.-Head-Change                         Max.-Flux-Residual
  Residual-Control   Outer-Iter.   Inner-Iter.     Column Row Layer    Maximum-Head-Change  Column Row Layer    Maximum-Flux-Residual          L2-NORM 
          0                 1           3            72    1     1      -0.8680613665E-01      67    1    1        -0.1704370786E-02      0.2707442956E-01
          0                 2           2            72    7     1       0.7553012469E-02      67    1    1         0.1703200978E-03      0.2673634595E-02
          0                 3           2            72    7     1      -0.5974110596E-03      67    4    1         0.2758137788E-04      0.2693394771E-03
          0                 4           1            66    1     1       0.4315677590E-04      67    4    1        -0.2983008953E-05      0.2458218900E-04
          0                 5           1            52    1     1       0.2800939410E-05      67    4    1         0.2389225671E-06      0.1889533701E-05
          0                 6           1            52    1     1      -0.1649668227E-06      68    4    1        -0.1599514832E-07      0.1221194353E-06

    ------------------------------------------------
       NWT REQUIRED            6 OUTER ITERATIONS 
       AND A TOTAL OF         10 INNER ITERATIONS.
    ------------------------------------------------

 NO OUTPUT CONTROL FOR STRESS PERIOD   17   TIME STEP   26
 
 WELLS WITH REDUCED PUMPING FOR STRESS PERIOD    17 TIME STEP    26
   LAY   ROW   COL         APPL.Q          ACT.Q        GW-HEAD       CELL-BOT
     1     3    50  -0.520003E+00  -0.485217E+00   0.943191E+01   0.000000E+00
     1     5    55  -0.520003E+00  -0.432811E+00   0.821374E+01   0.000000E+00
 
 
 SOLVING FOR HEAD 
                                                   Max.-Head-Change                         Max.-Flux-Residual
  Residual-Control   Outer-Iter.   Inner-Iter.     Column Row Layer    Maximum-Head-Change  Column Row Layer    Maximum-Flux-Residual          L2-NORM 
          0                 1           3            72    1     1      -0.9572105129E-01      72    3    1        -0.1691848443E-02      0.2705377333E-01
          0                 2           2            72    7     1       0.8311414539E-02      72    3    1         0.1691522902E-03      0.2661398368E-02
          0                 3           2            72    7     1      -0.6552621347E-03      66    4    1         0.2732571823E-04      0.2685166689E-03
          0                 4           1            72    7     1       0.4636962739E-04      66    4    1        -0.2956136873E-05      0.2460951783E-04
          0                 5           1            52    1     1       0.2866678096E-05      66    4    1         0.2468815410E-06      0.1890891858E-05
          0                 6           1            52    1     1      -0.1677895215E-06      66    4    1        -0.1660906968E-07      0.1223125948E-06

    ------------------------------------------------
       NWT REQUIRED            6 OUTER ITERATIONS 
       AND A TOTAL OF         10 INNER ITERATIONS.
    ------------------------------------------------

 NO OUTPUT CONTROL FOR STRESS PERIOD   17   TIME STEP   27
 
 WELLS WITH REDUCED PUMPING FOR STRESS PERIOD    17 TIME STEP    27
   LAY   ROW   COL         APPL.Q          ACT.Q        GW-HEAD       CELL-BOT
     1     3    50  -0.520001E+00  -0.486543E+00   0.946806E+01   0.000000E+00
     1     5    55  -0.520001E+00  -0.433784E+00   0.823180E+01   0.000000E+00
 
 
 SOLVING FOR HEAD 
                                                   Max.-Head-Change                         Max.-Flux-Residual
  Residual-Control   Outer-Iter.   Inner-Iter.     Column Row Layer    Maximum-Head-Change  Column Row Layer    Maximum-Flux-Residual          L2-NORM 
          0                 1           3            72    1     1      -0.1052990268E+00      72    3    1        -0.1695575181E-02      0.2680555151E-01
          0                 2           2            72    7     1       0.9125823543E-02      72    3    1         0.1695140035E-03      0.2658366243E-02
          0                 3           2            72    7     1      -0.7173007745E-03      65    4    1         0.2659958144E-04      0.2690773019E-03
          0                 4           1            72    7     1       0.5049607809E-04      65    4    1        -0.2866100773E-05      0.2472684252E-04
          0                 5           1            71    7     1      -0.3063977401E-05      70    4    1         0.2372570265E-06      0.1894221332E-05
          0                 6           1            52    1     1      -0.1758400429E-06      70    4    1        -0.1657669024E-07      0.1224489602E-06

    ------------------------------------------------
       NWT REQUIRED            6 OUTER ITERATIONS 
       AND A TOTAL OF         10 INNER ITERATIONS.
    ------------------------------------------------

 NO OUTPUT CONTROL FOR STRESS PERIOD   17   TIME STEP   28
 
 WELLS WITH REDUCED PUMPING FOR STRESS PERIOD    17 TIME STEP    28
   LAY   ROW   COL         APPL.Q          ACT.Q        GW-HEAD       CELL-BOT
     1     3    50  -0.520001E+00  -0.487717E+00   0.950055E+01   0.000000E+00
     1     5    55  -0.520001E+00  -0.434557E+00   0.824617E+01   0.000000E+00
 
 
 SOLVING FOR HEAD 
                                                   Max.-Head-Change                         Max.-Flux-Residual
  Residual-Control   Outer-Iter.   Inner-Iter.     Column Row Layer    Maximum-Head-Change  Column Row Layer    Maximum-Flux-Residual          L2-NORM 
          0                 1           3            72    1     1      -0.1155707320E+00      72    3    1        -0.1693814363E-02      0.2654728310E-01
          0                 2           2            72    7     1       0.9993554871E-02      72    3    1         0.1693290347E-03      0.2636277405E-02
          0                 3           2            72    7     1      -0.7833790293E-03      64    4    1         0.2505519346E-04      0.2674740324E-03
          0                 4           1            72    7     1       0.5486947413E-04      64    4    1        -0.2699559015E-05      0.2466310383E-04
          0                 5           1            71    7     1      -0.3284908580E-05      70    4    1         0.2389295588E-06      0.1882691998E-05
          0                 6           1            71    7     1       0.1766725570E-06      70    4    1        -0.1678861317E-07      0.1215950948E-06

    ------------------------------------------------
       NWT REQUIRED            6 OUTER ITERATIONS 
       AND A TOTAL OF         10 INNER ITERATIONS.
    ------------------------------------------------

 NO OUTPUT CONTROL FOR STRESS PERIOD   17   TIME STEP   29
 
 WELLS WITH REDUCED PUMPING FOR STRESS PERIOD    17 TIME STEP    29
   LAY   ROW   COL         APPL.Q          ACT.Q        GW-HEAD       CELL-BOT
     1     3    50  -0.519996E+00  -0.488788E+00   0.953077E+01   0.000000E+00
     1     5    55  -0.519996E+00  -0.435204E+00   0.825831E+01   0.000000E+00
 
 
 SOLVING FOR HEAD 
                                                   Max.-Head-Change                         Max.-Flux-Residual
  Residual-Control   Outer-Iter.   Inner-Iter.     Column Row Layer    Maximum-Head-Change  Column Row Layer    Maximum-Flux-Residual          L2-NORM 
          0                 1           3            72    1     1      -0.1264438846E+00      72    3    1        -0.1688816401E-02      0.2626935193E-01
          0                 2           2            72    7     1       0.1089935790E-01      72    3    1         0.1688164029E-03      0.2610855015E-02
          0                 3           2            73    7     1      -0.8494129761E-03      63    4    1         0.2325039731E-04      0.2655119711E-03
          0                 4           1            73    7     1       0.5909486319E-04      71    4    1        -0.2685422645E-05      0.2456611700E-04
          0                 5           1            71    7     1      -0.3467804692E-05      70    4    1         0.2384284130E-06      0.1865321298E-05
          0                 6           1            71    7     1       0.1844379099E-06      70    4    1        -0.1679958928E-07      0.1202845629E-06

    ------------------------------------------------
       NWT REQUIRED            6 OUTER ITERATIONS 
       AND A TOTAL OF         10 INNER ITERATIONS.
    ------------------------------------------------

 NO OUTPUT CONTROL FOR STRESS PERIOD   17   TIME STEP   30
 
 WELLS WITH REDUCED PUMPING FOR STRESS PERIOD    17 TIME STEP    30
   LAY   ROW   COL         APPL.Q          ACT.Q        GW-HEAD       CELL-BOT
     1     3    50  -0.519997E+00  -0.489772E+00   0.955880E+01   0.000000E+00
     1     5    55  -0.519997E+00  -0.435741E+00   0.826834E+01   0.000000E+00
 



 STREAM LISTING     PERIOD     17   STEP       30

 LAYER ROW COL. STREAM  RCH.   FLOW INTO    STREAM     FLOW OUT OF   OVRLND.    DIRECT     STREAM      STREAM      STREAM     STREAM  STREAMBED   FLOW TO   CHNG. UNSAT. 
                SEG.NO.  NO.   STRM. RCH.    LOSS       STRM. RCH.   RUNOFF     PRECIP       ET         HEAD        DEPTH      WIDTH  CONDCTNC.   WAT. TAB.

   1    4    1     1     1    1.7470E+01  4.6755E-03   1.7465E+01  0.000E+00  0.000E+00  0.000E+00  1.43029E+02  3.179E+00  5.616E+00  1.271E-03  4.615E-03  6.065E-05
   1    4    2     1     2    1.7465E+01  4.6745E-03   1.7461E+01  0.000E+00  0.000E+00  0.000E+00  1.42728E+02  3.178E+00  5.615E+00  1.271E-03  4.614E-03  6.085E-05
   1    4    3     1     3    1.7461E+01  4.6734E-03   1.7456E+01  0.000E+00  0.000E+00  0.000E+00  1.42428E+02  3.178E+00  5.615E+00  1.271E-03  4.612E-03  6.123E-05
   1    4    4     1     4    1.7456E+01  4.6724E-03   1.7451E+01  0.000E+00  0.000E+00  0.000E+00  1.42127E+02  3.177E+00  5.614E+00  1.271E-03  4.611E-03  6.179E-05
   1    4    5     1     5    1.7451E+01  4.6714E-03   1.7447E+01  0.000E+00  0.000E+00  0.000E+00  1.41827E+02  3.177E+00  5.614E+00  1.270E-03  4.609E-03  6.253E-05
   1    4    6     1     6    1.7447E+01  4.6703E-03   1.7442E+01  0.000E+00  0.000E+00  0.000E+00  1.41527E+02  3.177E+00  5.613E+00  1.270E-03  4.607E-03  6.344E-05
   1    4    7     1     7    1.7442E+01  4.6693E-03   1.7437E+01  0.000E+00  0.000E+00  0.000E+00  1.41226E+02  3.176E+00  5.613E+00  1.270E-03  4.605E-03  6.452E-05
   1    4    8     1     8    1.7437E+01  4.6683E-03   1.7433E+01  0.000E+00  0.000E+00  0.000E+00  1.40926E+02  3.176E+00  5.612E+00  1.270E-03  4.603E-03  6.577E-05
   1    4    9     1     9    1.7433E+01  4.6672E-03   1.7428E+01  0.000E+00  0.000E+00  0.000E+00  1.40625E+02  3.175E+00  5.612E+00  1.270E-03  4.600E-03  6.717E-05
   1    4   10     1    10    1.7428E+01  4.6662E-03   1.7423E+01  0.000E+00  0.000E+00  0.000E+00  1.40325E+02  3.175E+00  5.611E+00  1.270E-03  4.597E-03  6.873E-05
   1    4   11     1    11    1.7423E+01  4.6652E-03   1.7419E+01  0.000E+00  0.000E+00  0.000E+00  1.40025E+02  3.175E+00  5.611E+00  1.270E-03  4.595E-03  7.042E-05
   1    4   12     1    12    1.7419E+01  4.6642E-03   1.7414E+01  0.000E+00  0.000E+00  0.000E+00  1.39724E+02  3.174E+00  5.610E+00  1.269E-03  4.592E-03  7.224E-05
   1    4   13     1    13    1.7414E+01  4.6631E-03   1.7409E+01  0.000E+00  0.000E+00  0.000E+00  1.39424E+02  3.174E+00  5.610E+00  1.269E-03  4.589E-03  7.418E-05
   1    4   14     1    14    1.7409E+01  4.6621E-03   1.7405E+01  0.000E+00  0.000E+00  0.000E+00  1.39123E+02  3.173E+00  5.609E+00  1.269E-03  4.586E-03  7.623E-05
   1    4   15     1    15    1.7405E+01  4.6611E-03   1.7400E+01  0.000E+00  0.000E+00  0.000E+00  1.38823E+02  3.173E+00  5.609E+00  1.269E-03  4.583E-03  7.840E-05
   1    4   16     1    16    1.7400E+01  4.6600E-03   1.7395E+01  0.000E+00  0.000E+00  0.000E+00  1.38522E+02  3.172E+00  5.608E+00  1.269E-03  4.593E-03  6.654E-05
   1    4   17     1    17    1.7395E+01  4.6590E-03   1.7391E+01  0.000E+00  0.000E+00  0.000E+00  1.38222E+02  3.172E+00  5.608E+00  1.269E-03  4.592E-03  6.671E-05
   1    4   18     1    18    1.7391E+01  4.6580E-03   1.7386E+01  0.000E+00  0.000E+00  0.000E+00  1.37922E+02  3.172E+00  5.607E+00  1.269E-03  4.589E-03  6.918E-05
   1    4   19     1    19    1.7386E+01  4.6569E-03   1.7381E+01  0.000E+00  0.000E+00  0.000E+00  1.37621E+02  3.171E+00  5.607E+00  1.268E-03  4.585E-03  7.169E-05
   1    4   20     1    20    1.7381E+01  4.6559E-03   1.7377E+01  0.000E+00  0.000E+00  0.000E+00  1.37321E+02  3.171E+00  5.606E+00  1.268E-03  4.582E-03  7.425E-05
   1    4   21     1    21    1.7377E+01  4.6549E-03   1.7372E+01  0.000E+00  0.000E+00  0.000E+00  1.37020E+02  3.170E+00  5.606E+00  1.268E-03  4.578E-03  7.681E-05
   1    4   22     1    22    1.7372E+01  4.6539E-03   1.7367E+01  0.000E+00  0.000E+00  0.000E+00  1.36720E+02  3.170E+00  5.605E+00  1.268E-03  4.574E-03  7.937E-05
   1    4   23     1    23    1.7367E+01  4.6528E-03   1.7363E+01  0.000E+00  0.000E+00  0.000E+00  1.36420E+02  3.170E+00  5.605E+00  1.268E-03  4.571E-03  8.190E-05
   1    4   24     1    24    1.7363E+01  4.6518E-03   1.7358E+01  0.000E+00  0.000E+00  0.000E+00  1.36119E+02  3.169E+00  5.604E+00  1.268E-03  4.567E-03  8.437E-05
   1    4   25     1    25    1.7358E+01  4.6508E-03   1.7353E+01  0.000E+00  0.000E+00  0.000E+00  1.35819E+02  3.169E+00  5.604E+00  1.268E-03  4.564E-03  8.677E-05
   1    4   26     1    26    1.7353E+01  4.6497E-03   1.7349E+01  0.000E+00  0.000E+00  0.000E+00  1.35518E+02  3.168E+00  5.603E+00  1.268E-03  4.561E-03  8.906E-05
   1    4   27     1    27    1.7349E+01  4.6487E-03   1.7344E+01  0.000E+00  0.000E+00  0.000E+00  1.35218E+02  3.168E+00  5.603E+00  1.267E-03  4.557E-03  9.122E-05
   1    4   28     1    28    1.7344E+01  4.6477E-03   1.7339E+01  0.000E+00  0.000E+00  0.000E+00  1.34917E+02  3.167E+00  5.602E+00  1.267E-03  4.554E-03  9.320E-05
   1    4   29     1    29    1.7339E+01  4.6467E-03   1.7335E+01  0.000E+00  0.000E+00  0.000E+00  1.34617E+02  3.167E+00  5.602E+00  1.267E-03  4.552E-03  9.498E-05
   1    4   30     1    30    1.7335E+01  4.6456E-03   1.7330E+01  0.000E+00  0.000E+00  0.000E+00  1.34317E+02  3.167E+00  5.601E+00  1.267E-03  4.549E-03  9.658E-05
   1    4   31     1    31    1.7330E+01  4.6446E-03   1.7326E+01  0.000E+00  0.000E+00  0.000E+00  1.34016E+02  3.166E+00  5.601E+00  1.267E-03  4.547E-03  9.795E-05
   1    4   32     1    32    1.7326E+01  4.6436E-03   1.7321E+01  0.000E+00  0.000E+00  0.000E+00  1.33716E+02  3.166E+00  5.600E+00  1.267E-03  4.545E-03  9.896E-05
   1    4   33     1    33    1.7321E+01  4.6425E-03   1.7316E+01  0.000E+00  0.000E+00  0.000E+00  1.33415E+02  3.165E+00  5.600E+00  1.267E-03  4.543E-03  9.946E-05
   1    4   34     1    34    1.7316E+01  4.6415E-03   1.7312E+01  0.000E+00  0.000E+00  0.000E+00  1.33115E+02  3.165E+00  5.599E+00  1.266E-03  4.570E-03  7.126E-05
   1    4   35     1    35    1.7312E+01  4.6405E-03   1.7307E+01  0.000E+00  0.000E+00  0.000E+00  1.32815E+02  3.165E+00  5.599E+00  1.266E-03  4.600E-03  4.027E-05
   1    4   36     1    36    1.7307E+01  4.6395E-03   1.7302E+01  0.000E+00  0.000E+00  0.000E+00  1.32514E+02  3.164E+00  5.598E+00  1.266E-03  4.633E-03  6.418E-06
   1    4   37     1    37    1.7302E+01  4.6384E-03   1.7298E+01  0.000E+00  0.000E+00  0.000E+00  1.32214E+02  3.164E+00  5.598E+00  1.266E-03  4.657E-03 -1.852E-05
   1    4   38     1    38    1.7298E+01  4.6374E-03   1.7293E+01  0.000E+00  0.000E+00  0.000E+00  1.31913E+02  3.163E+00  5.597E+00  1.266E-03  4.693E-03 -5.534E-05
   1    4   39     1    39    1.7293E+01  4.6364E-03   1.7288E+01  0.000E+00  0.000E+00  0.000E+00  1.31613E+02  3.163E+00  5.597E+00  1.266E-03  4.732E-03 -9.589E-05
   1    4   40     1    40    1.7288E+01  4.6354E-03   1.7284E+01  0.000E+00  0.000E+00  0.000E+00  1.31312E+02  3.162E+00  5.596E+00  1.266E-03  4.777E-03 -1.419E-04
   1    4   41     1    41    1.7284E+01  4.6343E-03   1.7279E+01  0.000E+00  0.000E+00  0.000E+00  1.31012E+02  3.162E+00  5.596E+00  1.266E-03  4.822E-03 -1.873E-04
   1    4   42     1    42    1.7279E+01  4.6333E-03   1.7275E+01  0.000E+00  0.000E+00  0.000E+00  1.30712E+02  3.162E+00  5.595E+00  1.265E-03  4.917E-03 -2.838E-04
   1    4   43     1    43    1.7275E+01  4.6323E-03   1.7270E+01  0.000E+00  0.000E+00  0.000E+00  1.30411E+02  3.161E+00  5.595E+00  1.265E-03  4.176E-03  4.566E-04
   1    4   44     1    44    1.7270E+01  4.6313E-03   1.7265E+01  0.000E+00  0.000E+00  0.000E+00  1.30111E+02  3.161E+00  5.594E+00  1.265E-03  4.135E-03  4.958E-04
   1    4   45     1    45    1.7265E+01  4.6302E-03   1.7261E+01  0.000E+00  0.000E+00  0.000E+00  1.29810E+02  3.160E+00  5.594E+00  1.265E-03  4.167E-03  4.632E-04
   1    4   46     1    46    1.7261E+01  4.6292E-03   1.7256E+01  0.000E+00  0.000E+00  0.000E+00  1.29510E+02  3.160E+00  5.593E+00  1.265E-03  4.200E-03  4.288E-04
   1    4   47     1    47    1.7256E+01  4.6282E-03   1.7251E+01  0.000E+00  0.000E+00  0.000E+00  1.29210E+02  3.160E+00  5.593E+00  1.265E-03  4.217E-03  4.113E-04
   1    4   48     1    48    1.7251E+01  4.6272E-03   1.7247E+01  0.000E+00  0.000E+00  0.000E+00  1.28909E+02  3.159E+00  5.592E+00  1.265E-03  4.235E-03  3.922E-04
   1    4   49     1    49    1.7247E+01  4.6261E-03   1.7242E+01  0.000E+00  0.000E+00  0.000E+00  1.28609E+02  3.159E+00  5.592E+00  1.264E-03  4.254E-03  3.721E-04
   1    4   50     1    50    1.7242E+01  4.6251E-03   1.7237E+01  0.000E+00  0.000E+00  0.000E+00  1.28308E+02  3.158E+00  5.591E+00  1.264E-03  4.315E-03  3.096E-04
   1    4   51     1    51    1.7237E+01  4.6241E-03   1.7233E+01  0.000E+00  0.000E+00  0.000E+00  1.28008E+02  3.158E+00  5.591E+00  1.264E-03  4.353E-03  2.707E-04
   1    4   52     1    52    1.7233E+01  4.6231E-03   1.7228E+01  0.000E+00  0.000E+00  0.000E+00  1.27707E+02  3.157E+00  5.590E+00  1.264E-03  4.370E-03  2.526E-04
   1    4   53     1    53    1.7228E+01  4.6220E-03   1.7224E+01  0.000E+00  0.000E+00  0.000E+00  1.27407E+02  3.157E+00  5.590E+00  1.264E-03  4.364E-03  2.580E-04
   1    4   54     1    54    1.7224E+01  4.6210E-03   1.7219E+01  0.000E+00  0.000E+00  0.000E+00  1.27107E+02  3.157E+00  5.589E+00  1.264E-03  4.335E-03  2.859E-04
   1    4   55     1    55    1.7219E+01  4.6200E-03   1.7214E+01  0.000E+00  0.000E+00  0.000E+00  1.26806E+02  3.156E+00  5.589E+00  1.264E-03  4.287E-03  3.333E-04
   1    4   56     1    56    1.7214E+01  4.6190E-03   1.7210E+01  0.000E+00  0.000E+00  0.000E+00  1.26506E+02  3.156E+00  5.588E+00  1.263E-03  4.220E-03  3.992E-04
   1    4   57     1    57    1.7210E+01  4.6179E-03   1.7205E+01  0.000E+00  0.000E+00  0.000E+00  1.26205E+02  3.155E+00  5.588E+00  1.263E-03  4.196E-03  4.224E-04
   1    4   58     1    58    1.7205E+01  4.6169E-03   1.7201E+01  0.000E+00  0.000E+00  0.000E+00  1.25905E+02  3.155E+00  5.587E+00  1.263E-03  4.173E-03  4.436E-04
   1    4   59     1    59    1.7201E+01  4.6159E-03   1.7196E+01  0.000E+00  0.000E+00  0.000E+00  1.25605E+02  3.155E+00  5.587E+00  1.263E-03  4.153E-03  4.627E-04
   1    4   60     1    60    1.7196E+01  4.6149E-03   1.7191E+01  0.000E+00  0.000E+00  0.000E+00  1.25304E+02  3.154E+00  5.586E+00  1.263E-03  4.136E-03  4.793E-04
   1    4   61     1    61    1.7191E+01  4.6139E-03   1.7187E+01  0.000E+00  0.000E+00  0.000E+00  1.25004E+02  3.154E+00  5.586E+00  1.263E-03  4.084E-03  5.299E-04
   1    4   62     1    62    1.7187E+01  4.6128E-03   1.7182E+01  0.000E+00  0.000E+00  0.000E+00  1.24703E+02  3.153E+00  5.585E+00  1.263E-03  4.073E-03  5.394E-04
   1    4   63     1    63    1.7182E+01  4.6118E-03   1.7177E+01  0.000E+00  0.000E+00  0.000E+00  1.24403E+02  3.153E+00  5.585E+00  1.263E-03  4.825E-03 -2.128E-04
   1    4   64     1    64    1.7177E+01  4.6108E-03   1.7173E+01  0.000E+00  0.000E+00  0.000E+00  1.24102E+02  3.152E+00  5.584E+00  1.262E-03  4.768E-03 -1.571E-04
   1    4   65     1    65    1.7173E+01  4.6098E-03   1.7168E+01  0.000E+00  0.000E+00  0.000E+00  1.23802E+02  3.152E+00  5.584E+00  1.262E-03  4.718E-03 -1.087E-04
   1    4   66     1    66    1.7168E+01  4.6087E-03   1.7164E+01  0.000E+00  0.000E+00  0.000E+00  1.23502E+02  3.152E+00  5.583E+00  1.262E-03  4.647E-03 -3.862E-05
   1    4   67     1    67    1.7164E+01  4.6077E-03   1.7159E+01  0.000E+00  0.000E+00  0.000E+00  1.23201E+02  3.151E+00  5.583E+00  1.262E-03  4.604E-03  3.849E-06
   1    4   68     1    68    1.7159E+01  4.6067E-03   1.7154E+01  0.000E+00  0.000E+00  0.000E+00  1.22901E+02  3.151E+00  5.582E+00  1.262E-03  4.564E-03  4.242E-05
   1    4   69     1    69    1.7154E+01  4.6057E-03   1.7150E+01  0.000E+00  0.000E+00  0.000E+00  1.22600E+02  3.150E+00  5.582E+00  1.262E-03  4.538E-03  6.790E-05
   1    4   70     1    70    1.7150E+01  4.6047E-03   1.7145E+01  0.000E+00  0.000E+00  0.000E+00  1.22300E+02  3.150E+00  5.581E+00  1.262E-03  4.502E-03  1.028E-04
   1    4   71     1    71    1.7145E+01  4.6036E-03   1.7141E+01  0.000E+00  0.000E+00  0.000E+00  1.22000E+02  3.150E+00  5.581E+00  1.261E-03  4.468E-03  1.354E-04
   1    4   72     1    72    1.7141E+01  4.6026E-03   1.7136E+01  0.000E+00  0.000E+00  0.000E+00  1.21699E+02  3.149E+00  5.580E+00  1.261E-03  4.447E-03  1.558E-04
   1    4   73     1    73    1.7136E+01  4.6016E-03   1.7131E+01  0.000E+00  0.000E+00  0.000E+00  1.21399E+02  3.149E+00  5.580E+00  1.261E-03  4.447E-03  1.548E-04
   1    4   74     1    74    1.7131E+01  4.6006E-03   1.7127E+01  0.000E+00  0.000E+00  0.000E+00  1.21098E+02  3.148E+00  5.579E+00  1.261E-03  4.447E-03  1.531E-04
   1    4   75     1    75    1.7127E+01  4.5996E-03   1.7122E+01  0.000E+00  0.000E+00  0.000E+00  1.20798E+02  3.148E+00  5.579E+00  1.261E-03  4.449E-03  1.509E-04
   1    4   76     1    76    1.7122E+01  4.5985E-03   1.7118E+01  0.000E+00  0.000E+00  0.000E+00  1.20497E+02  3.147E+00  5.578E+00  1.261E-03  4.450E-03  1.482E-04
   1    4   77     1    77    1.7118E+01  4.5975E-03   1.7113E+01  0.000E+00  0.000E+00  0.000E+00  1.20197E+02  3.147E+00  5.578E+00  1.261E-03  4.452E-03  1.451E-04
   1    4   78     1    78    1.7113E+01  4.5965E-03   1.7108E+01  0.000E+00  0.000E+00  0.000E+00  1.19897E+02  3.147E+00  5.577E+00  1.260E-03  4.455E-03  1.414E-04
   1    4   79     1    79    1.7108E+01  4.5955E-03   1.7104E+01  0.000E+00  0.000E+00  0.000E+00  1.19596E+02  3.146E+00  5.577E+00  1.260E-03  4.458E-03  1.374E-04
   1    4   80     1    80    1.7104E+01  4.5945E-03   1.7099E+01  0.000E+00  0.000E+00  0.000E+00  1.19296E+02  3.146E+00  5.576E+00  1.260E-03  4.462E-03  1.329E-04
   1    4   81     1    81    1.7099E+01  4.5934E-03   1.7095E+01  0.000E+00  0.000E+00  0.000E+00  1.18995E+02  3.145E+00  5.576E+00  1.260E-03  4.465E-03  1.280E-04
   1    4   82     1    82    1.7095E+01  4.5924E-03   1.7090E+01  0.000E+00  0.000E+00  0.000E+00  1.18695E+02  3.145E+00  5.575E+00  1.260E-03  4.476E-03  1.169E-04
   1    4   83     1    83    1.7090E+01  4.5914E-03   1.7085E+01  0.000E+00  0.000E+00  0.000E+00  1.18395E+02  3.145E+00  5.575E+00  1.260E-03  4.481E-03  1.108E-04
   1    4   84     1    84    1.7085E+01  4.5904E-03   1.7081E+01  0.000E+00  0.000E+00  0.000E+00  1.18094E+02  3.144E+00  5.574E+00  1.260E-03  4.486E-03  1.044E-04
   1    4   85     1    85    1.7081E+01  4.5894E-03   1.7076E+01  0.000E+00  0.000E+00  0.000E+00  1.17794E+02  3.144E+00  5.574E+00  1.260E-03  4.492E-03  9.767E-05
   1    4   86     1    86    1.7076E+01  4.5884E-03   1.7072E+01  0.000E+00  0.000E+00  0.000E+00  1.17493E+02  3.143E+00  5.573E+00  1.259E-03  4.498E-03  9.071E-05
   1    4   87     1    87    1.7072E+01  4.5873E-03   1.7067E+01  0.000E+00  0.000E+00  0.000E+00  1.17193E+02  3.143E+00  5.573E+00  1.259E-03  4.504E-03  8.353E-05
   1    4   88     1    88    1.7067E+01  4.5863E-03   1.7062E+01  0.000E+00  0.000E+00  0.000E+00  1.16892E+02  3.142E+00  5.572E+00  1.259E-03  4.510E-03  7.619E-05
   1    4   89     1    89    1.7062E+01  4.5853E-03   1.7058E+01  0.000E+00  0.000E+00  0.000E+00  1.16592E+02  3.142E+00  5.572E+00  1.259E-03  4.517E-03  6.873E-05
   1    4   90     1    90    1.7058E+01  4.5843E-03   1.7053E+01  0.000E+00  0.000E+00  0.000E+00  1.16292E+02  3.142E+00  5.571E+00  1.259E-03  4.523E-03  6.120E-05
   1    4   91     1    91    1.7053E+01  4.5833E-03   1.7049E+01  0.000E+00  0.000E+00  0.000E+00  1.15991E+02  3.141E+00  5.571E+00  1.259E-03  4.530E-03  5.363E-05
   1    4   92     1    92    1.7049E+01  4.5823E-03   1.7044E+01  0.000E+00  0.000E+00  0.000E+00  1.15691E+02  3.141E+00  5.570E+00  1.259E-03  4.536E-03  4.603E-05
   1    4   93     1    93    1.7044E+01  4.5812E-03   1.7040E+01  0.000E+00  0.000E+00  0.000E+00  1.15390E+02  3.140E+00  5.570E+00  1.258E-03  4.543E-03  3.841E-05
   1    4   94     1    94    1.7040E+01  4.5802E-03   1.7035E+01  0.000E+00  0.000E+00  0.000E+00  1.15090E+02  3.140E+00  5.569E+00  1.258E-03  4.549E-03  3.076E-05
   1    4   95     1    95    1.7035E+01  4.5792E-03   1.7030E+01  0.000E+00  0.000E+00  0.000E+00  1.14790E+02  3.140E+00  5.569E+00  1.258E-03  4.556E-03  2.305E-05
   1    4   96     1    96    1.7030E+01  4.5782E-03   1.7026E+01  0.000E+00  0.000E+00  0.000E+00  1.14489E+02  3.139E+00  5.568E+00  1.258E-03  4.563E-03  1.523E-05
   1    4   97     1    97    1.7026E+01  4.5772E-03   1.7021E+01  0.000E+00  0.000E+00  0.000E+00  1.14189E+02  3.139E+00  5.568E+00  1.258E-03  4.570E-03  7.263E-06
   1    4   98     1    98    1.7021E+01  4.5762E-03   1.7017E+01  0.000E+00  0.000E+00  0.000E+00  1.13888E+02  3.138E+00  5.567E+00  1.258E-03  4.577E-03 -8.979E-07
   1    4   99     1    99    1.7017E+01  4.5751E-03   1.7012E+01  0.000E+00  0.000E+00  0.000E+00  1.13588E+02  3.138E+00  5.567E+00  1.258E-03  4.584E-03 -9.265E-06
   1    4  100     1   100    1.7012E+01  4.5741E-03   1.7008E+01  0.000E+00  0.000E+00  0.000E+00  1.13287E+02  3.137E+00  5.566E+00  1.257E-03  4.592E-03 -1.782E-05



1
  VOLUMETRIC BUDGET FOR UNSATURATED ZONE BENEATH STREAMS AT END OF TIME STEP    30 STRESS PERIOD  17
  ------------------------------------------------------------------------------------------------

    CUMULATIVE VOLUMES             L**3    RATES FOR THIS TIME STEP         L**3/T
    ------------------                     ------------------------


          STREAM LOSS =     16728375.0000            STREAM LOSS =            0.4625
    CHANGE IN STORAGE =      1916168.3750      CHANGE IN STORAGE =        1.2148E-02
       RECHARGE TO GW =     14816959.0000         RECHARGE TO GW =            0.4503

             TOTAL IN =     16728375.0000               TOTAL IN =            0.4625

            TOTAL OUT =     16733127.0000              TOTAL OUT =            0.4625

             IN - OUT =        -4752.0000               IN - OUT =        5.9605E-08

  PERCENT DISCREPANCY =           -0.01      PERCENT DISCREPANCY =             0.00



1
  VOLUMETRIC BUDGET FOR ENTIRE MODEL AT END OF TIME STEP   30, STRESS PERIOD  17
  ------------------------------------------------------------------------------

     CUMULATIVE VOLUMES      L**3       RATES FOR THIS TIME STEP      L**3/T
     ------------------                 ------------------------

           IN:                                      IN:
           ---                                      ---
             STORAGE     =    79288752.0000               STORAGE     =           0.5998
       CONSTANT HEAD     =           0.0000         CONSTANT HEAD     =           0.0000
               WELLS     =           0.0000                 WELLS     =           0.0000
     HEAD DEP BOUNDS     =           0.0000       HEAD DEP BOUNDS     =           0.0000
      STREAM LEAKAGE     =    14817004.0000        STREAM LEAKAGE     =           0.4503

                TOTAL IN =    94105760.0000                  TOTAL IN =           1.0501

          OUT:                                     OUT:
          ----                                     ----
             STORAGE     =     2412172.7500               STORAGE     =       2.8368E-02
       CONSTANT HEAD     =           0.0000         CONSTANT HEAD     =           0.0000
               WELLS     =    76924672.0000                 WELLS     =           0.9255
     HEAD DEP BOUNDS     =    14768982.0000       HEAD DEP BOUNDS     =       9.6194E-02
      STREAM LEAKAGE     =           0.0000        STREAM LEAKAGE     =           0.0000

               TOTAL OUT =    94105832.0000                 TOTAL OUT =           1.0501

                IN - OUT =         -72.0000                  IN - OUT =      -1.1921E-07

     PERCENT DISCREPANCY =          -0.00         PERCENT DISCREPANCY =          -0.00






         TIME SUMMARY AT END OF TIME STEP   30 IN STRESS PERIOD   17
                    SECONDS     MINUTES      HOURS       DAYS        YEARS
                    -----------------------------------------------------------
   TIME STEP LENGTH 2.49961E+05  4166.0      69.434      2.8931     7.92080E-03
 STRESS PERIOD TIME 2.59200E+06  43200.      720.00      30.000     8.21355E-02
         TOTAL TIME 4.40640E+07 7.34400E+05  12240.      510.00      1.3963    
1
1
                            STRESS PERIOD NO.   18, LENGTH =   2592000.    
                            -----------------------------------------------

                              NUMBER OF TIME STEPS =    30

                               MULTIPLIER FOR DELT =     1.100

                            INITIAL TIME STEP SIZE =   15757.40    

 REUSING NON-PARAMETER WELLS FROM LAST STRESS PERIOD

      1 WELL 

 REUSING NON-PARAMETER GHB CELLS FROM LAST STRESS PERIOD

      7 GHB CELLS



 CLASSIFICATION & COUNT OF STREAM SEGMENTS BASED ON SOURCE OF INFLOW:

                HEADWATER     DIVERSION     RECEIVES TRIBUTARY FLOW
                ---------     ---------     -----------------------
                     1              0               0



                    INPUT DATA FOR EACH STREAM SEGMENT
 ---------------------------------------------------------------------------------------------

 SEGMENT    SEG.     INFLOW   OVERLAND   STREAM    STREAM   ICALC  OUTFLOW  DIVERSION PRIORITY
    NO.    LENGTH     RATE     RUNOFF      ET       PPT.    METH.  TO SEG.  FROM SEG.    NO.

      1  2.000E+04 4.047E+01 0.000E+00 0.000E+00 0.000E+00    2        0        0        0


         STREAMBED PROPERTIES AND STREAM DIMENSIONS

 SEGMENT     BED HYD. COND.      BED THICKNESS     ELEV.-TOP OF BED     WIDTH OF STREAM     DEPTH OF STREAM    STREAM ROUGHNESS
    No.     UPPER     LOWER     UPPER     LOWER     UPPER     LOWER     UPPER     LOWER     UPPER     LOWER   CHANNEL      BANK

     1  3.500E-07 3.500E-07                                                                                 3.000E-02 4.000E-02

  EIGHT POINT CROSS-SECTION DATA FOR SEGMENTS WITH ICALC = 2
    X VALUES X VALUES START FROM LEFT SIDE LOOKING DOWNSTREAM

     SEGMENT NO.        X1        X2        X3        X4        X5        X6        X7        X8
            1      0.000E+00 2.000E+00 4.000E+00 6.000E+00 8.000E+00 1.000E+01 1.200E+01 1.400E+01

    Z VALUES ARE RELATIVE TO STREAMBED ELEVATION

     SEGMENT NO.          Z1        Z2        Z3        Z4        Z5        Z6        Z7        Z8
            1      6.000E+00 4.500E+00 3.500E+00 0.000E+00 3.000E-01 3.500E+00 4.500E+00 6.000E+00



 
 SOLVING FOR HEAD 
                                                   Max.-Head-Change                         Max.-Flux-Residual
  Residual-Control   Outer-Iter.   Inner-Iter.     Column Row Layer    Maximum-Head-Change  Column Row Layer    Maximum-Flux-Residual          L2-NORM 
          0                 1           2            50    3     1      -0.3080712591E+00      50    3    1        -0.9361496478E-01      0.1281019780E+00
          0                 2           2            50    3     1       0.3251909378E-01      50    3    1         0.1029354091E-01      0.1383314190E-01
          0                 3           2            50    3     1      -0.2866349892E-02      50    3    1        -0.9163760327E-03      0.1236964331E-02
          0                 4           2            50    3     1       0.2276297090E-03      50    3    1         0.7348055531E-04      0.9922134549E-04
          0                 5           1            50    3     1      -0.1585451176E-04      50    3    1        -0.5165114576E-05      0.6975506638E-05
          0                 6           1            50    3     1       0.9520271879E-06      50    3    1         0.3129878184E-06      0.4226929642E-06

    ------------------------------------------------
       NWT REQUIRED            6 OUTER ITERATIONS 
       AND A TOTAL OF         10 INNER ITERATIONS.
    ------------------------------------------------

 NO OUTPUT CONTROL FOR STRESS PERIOD   18   TIME STEP    1
 
 WELLS WITH REDUCED PUMPING FOR STRESS PERIOD    18 TIME STEP     1
   LAY   ROW   COL         APPL.Q          ACT.Q        GW-HEAD       CELL-BOT
     1     3    50  -0.619818E+00  -0.571446E+00   0.928059E+01   0.000000E+00
     1     5    55  -0.619818E+00  -0.503881E+00   0.803112E+01   0.000000E+00
 
 
 SOLVING FOR HEAD 
                                                   Max.-Head-Change                         Max.-Flux-Residual
  Residual-Control   Outer-Iter.   Inner-Iter.     Column Row Layer    Maximum-Head-Change  Column Row Layer    Maximum-Flux-Residual          L2-NORM 
          0                 1           2            50    3     1      -0.2268988136E+00      50    3    1        -0.6369084908E-01      0.8816509915E-01
          0                 2           2            50    3     1       0.2314834110E-01      50    3    1         0.6824235333E-02      0.9254292935E-02
          0                 3           2            50    3     1      -0.2035247301E-02      50    3    1        -0.6095035407E-03      0.8324795898E-03
          0                 4           2            50    3     1       0.1613424723E-03      50    3    1         0.4885801934E-04      0.6684790276E-04
          0                 5           1            50    3     1      -0.1123494567E-04      50    3    1        -0.3434439596E-05      0.4701274904E-05
          0                 6           1            50    3     1       0.6746193621E-06      50    3    1         0.2081142129E-06      0.2848964068E-06

    ------------------------------------------------
       NWT REQUIRED            6 OUTER ITERATIONS 
       AND A TOTAL OF         10 INNER ITERATIONS.
    ------------------------------------------------

 NO OUTPUT CONTROL FOR STRESS PERIOD   18   TIME STEP    2
 
 WELLS WITH REDUCED PUMPING FOR STRESS PERIOD    18 TIME STEP     2
   LAY   ROW   COL         APPL.Q          ACT.Q        GW-HEAD       CELL-BOT
     1     3    50  -0.619959E+00  -0.561473E+00   0.907496E+01   0.000000E+00
     1     5    55  -0.619959E+00  -0.492574E+00   0.786350E+01   0.000000E+00
 
 
 SOLVING FOR HEAD 
                                                   Max.-Head-Change                         Max.-Flux-Residual
  Residual-Control   Outer-Iter.   Inner-Iter.     Column Row Layer    Maximum-Head-Change  Column Row Layer    Maximum-Flux-Residual          L2-NORM 
          0                 1           2            50    3     1      -0.1664149847E+00      50    3    1        -0.4279218163E-01      0.6260341261E-01
          0                 2           2            50    3     1       0.1652680189E-01      50    3    1         0.4504373271E-02      0.6396018543E-02
          0                 3           2            50    3     1      -0.1446188817E-02      50    3    1        -0.4031775830E-03      0.5792518617E-03
          0                 4           2            50    3     1       0.1143774833E-03      50    3    1         0.3231191888E-04      0.4663127811E-04
          0                 5           1            50    3     1      -0.7960842523E-05      50    3    1        -0.2271387086E-05      0.3282301078E-05
          0                 6           1            50    3     1       0.4779923576E-06      50    3    1         0.1376369184E-06      0.1989381213E-06

    ------------------------------------------------
       NWT REQUIRED            6 OUTER ITERATIONS 
       AND A TOTAL OF         10 INNER ITERATIONS.
    ------------------------------------------------

 NO OUTPUT CONTROL FOR STRESS PERIOD   18   TIME STEP    3
 
 WELLS WITH REDUCED PUMPING FOR STRESS PERIOD    18 TIME STEP     3
   LAY   ROW   COL         APPL.Q          ACT.Q        GW-HEAD       CELL-BOT
     1     3    50  -0.620050E+00  -0.553626E+00   0.892373E+01   0.000000E+00
     1     5    55  -0.620050E+00  -0.484400E+00   0.774563E+01   0.000000E+00
 
 
 SOLVING FOR HEAD 
                                                   Max.-Head-Change                         Max.-Flux-Residual
  Residual-Control   Outer-Iter.   Inner-Iter.     Column Row Layer    Maximum-Head-Change  Column Row Layer    Maximum-Flux-Residual          L2-NORM 
          0                 1           2            50    3     1      -0.1218612298E+00      50    3    1        -0.2848006839E-01      0.4695389707E-01
          0                 2           2            50    3     1       0.1181289878E-01      50    3    1         0.2961658924E-02      0.4692376190E-02
          0                 3           2            50    3     1      -0.1029007970E-02      50    3    1        -0.2654792976E-03      0.4286299465E-03
          0                 4           1            50    3     1       0.8118941889E-04      50    3    1         0.2127325953E-04      0.3465590514E-04
          0                 5           1            50    3     1      -0.5647252996E-05      50    3    1        -0.1495420454E-05      0.2443482495E-05
          0                 6           1            50    3     1       0.3390376885E-06      50    3    1         0.9061574224E-07      0.1481593380E-06

    ------------------------------------------------
       NWT REQUIRED            6 OUTER ITERATIONS 
       AND A TOTAL OF          9 INNER ITERATIONS.
    ------------------------------------------------

 NO OUTPUT CONTROL FOR STRESS PERIOD   18   TIME STEP    4
 
 WELLS WITH REDUCED PUMPING FOR STRESS PERIOD    18 TIME STEP     4
   LAY   ROW   COL         APPL.Q          ACT.Q        GW-HEAD       CELL-BOT
     1     3    50  -0.619967E+00  -0.547475E+00   0.881273E+01   0.000000E+00
     1     5    55  -0.619967E+00  -0.478443E+00   0.766281E+01   0.000000E+00
 
 
 SOLVING FOR HEAD 
                                                   Max.-Head-Change                         Max.-Flux-Residual
  Residual-Control   Outer-Iter.   Inner-Iter.     Column Row Layer    Maximum-Head-Change  Column Row Layer    Maximum-Flux-Residual          L2-NORM 
          0                 1           2            50    3     1      -0.9058079115E-01      50    3    1        -0.1911989592E-01      0.3811378429E-01
          0                 2           2            50    3     1       0.8606475307E-02      50    3    1         0.1972595711E-02      0.3760598688E-02
          0                 3           2            50    3     1      -0.7456394900E-03      50    3    1        -0.1769871963E-03      0.3471072238E-03
          0                 4           1            50    3     1       0.5866791202E-04      50    3    1         0.1418092128E-04      0.2823792701E-04
          0                 5           1            50    3     1      -0.4077031803E-05      50    3    1        -0.9968563988E-06      0.1996338565E-05
          0                 6           1            50    3     1       0.2447167906E-06      50    3    1         0.6040426026E-07      0.1211459467E-06

    ------------------------------------------------
       NWT REQUIRED            6 OUTER ITERATIONS 
       AND A TOTAL OF          9 INNER ITERATIONS.
    ------------------------------------------------

 NO OUTPUT CONTROL FOR STRESS PERIOD   18   TIME STEP    5
 
 WELLS WITH REDUCED PUMPING FOR STRESS PERIOD    18 TIME STEP     5
   LAY   ROW   COL         APPL.Q          ACT.Q        GW-HEAD       CELL-BOT
     1     3    50  -0.620043E+00  -0.542878E+00   0.873007E+01   0.000000E+00
     1     5    55  -0.620043E+00  -0.474233E+00   0.760353E+01   0.000000E+00
 
 
 SOLVING FOR HEAD 
                                                   Max.-Head-Change                         Max.-Flux-Residual
  Residual-Control   Outer-Iter.   Inner-Iter.     Column Row Layer    Maximum-Head-Change  Column Row Layer    Maximum-Flux-Residual          L2-NORM 
          0                 1           2            50    3     1      -0.6785167398E-01      50    3    1        -0.1283105889E-01      0.3312692683E-01
          0                 2           2            50    3     1       0.6334173303E-02      50    3    1         0.1316713802E-02      0.3255969823E-02
          0                 3           2            50    3     1      -0.5453700883E-03      50    3    1        -0.1182137113E-03      0.3037617095E-03
          0                 4           1            50    3     1       0.4277084035E-04      50    3    1         0.9471157681E-05      0.2488712823E-04
          0                 5           1            50    3     1      -0.2968651753E-05      50    3    1        -0.6657733147E-06      0.1765571414E-05
          0                 6           1            50    3     1       0.1781278802E-06      50    3    1         0.4034164136E-07      0.1072755804E-06

    ------------------------------------------------
       NWT REQUIRED            6 OUTER ITERATIONS 
       AND A TOTAL OF          9 INNER ITERATIONS.
    ------------------------------------------------

 NO OUTPUT CONTROL FOR STRESS PERIOD   18   TIME STEP    6
 
 WELLS WITH REDUCED PUMPING FOR STRESS PERIOD    18 TIME STEP     6
   LAY   ROW   COL         APPL.Q          ACT.Q        GW-HEAD       CELL-BOT
     1     3    50  -0.619964E+00  -0.539237E+00   0.866804E+01   0.000000E+00
     1     5    55  -0.619964E+00  -0.471060E+00   0.756060E+01   0.000000E+00
 
 
 SOLVING FOR HEAD 
                                                   Max.-Head-Change                         Max.-Flux-Residual
  Residual-Control   Outer-Iter.   Inner-Iter.     Column Row Layer    Maximum-Head-Change  Column Row Layer    Maximum-Flux-Residual          L2-NORM 
          0                 1           2            50    3     1      -0.5236709002E-01      50    3    1        -0.8844892018E-02      0.3044936857E-01
          0                 2           2            50    3     1       0.4819470842E-02      50    3    1         0.9046524245E-03      0.2997706028E-02
          0                 3           2            50    3     1      -0.4123650973E-03      50    3    1        -0.8125021794E-04      0.2822452397E-03
          0                 4           1            50    3     1       0.3222754279E-04      50    3    1         0.6509429640E-05      0.2328501965E-04
          0                 5           1            50    3     1      -0.2233524310E-05      50    3    1        -0.4575695640E-06      0.1658284624E-05
          0                 6           1            50    3     1       0.1339524730E-06      50    3    1         0.2772511376E-07      0.1009199499E-06

    ------------------------------------------------
       NWT REQUIRED            6 OUTER ITERATIONS 
       AND A TOTAL OF          9 INNER ITERATIONS.
    ------------------------------------------------

 NO OUTPUT CONTROL FOR STRESS PERIOD   18   TIME STEP    7
 
 WELLS WITH REDUCED PUMPING FOR STRESS PERIOD    18 TIME STEP     7
   LAY   ROW   COL         APPL.Q          ACT.Q        GW-HEAD       CELL-BOT
     1     3    50  -0.620018E+00  -0.536480E+00   0.862011E+01   0.000000E+00
     1     5    55  -0.620018E+00  -0.468742E+00   0.752829E+01   0.000000E+00
 
 
 SOLVING FOR HEAD 
                                                   Max.-Head-Change                         Max.-Flux-Residual
  Residual-Control   Outer-Iter.   Inner-Iter.     Column Row Layer    Maximum-Head-Change  Column Row Layer    Maximum-Flux-Residual          L2-NORM 
          0                 1           2            50    2     1      -0.4170474602E-01      50    3    1        -0.6188206230E-02      0.2889870003E-01
          0                 2           2            50    2     1       0.4078374319E-02      50    3    1         0.6316083286E-03      0.2852660135E-02
          0                 3           2            50    2     1      -0.3615351340E-03      50    3    1        -0.5674070267E-04      0.2706775888E-03
          0                 4           1            50    2     1       0.2862882279E-04      50    3    1         0.4545717852E-05      0.2248109516E-04
          0                 5           1            50    2     1      -0.1992691313E-05      50    3    1        -0.3195228033E-06      0.1607683072E-05
          0                 6           1            50    2     1       0.1196277820E-06      50    3    1         0.1935986116E-07      0.9803407677E-07

    ------------------------------------------------
       NWT REQUIRED            6 OUTER ITERATIONS 
       AND A TOTAL OF          9 INNER ITERATIONS.
    ------------------------------------------------

 NO OUTPUT CONTROL FOR STRESS PERIOD   18   TIME STEP    8
 
 WELLS WITH REDUCED PUMPING FOR STRESS PERIOD    18 TIME STEP     8
   LAY   ROW   COL         APPL.Q          ACT.Q        GW-HEAD       CELL-BOT
     1     3    50  -0.620026E+00  -0.534250E+00   0.858232E+01   0.000000E+00
     1     5    55  -0.620026E+00  -0.466916E+00   0.750329E+01   0.000000E+00
 
 
 SOLVING FOR HEAD 
                                                   Max.-Head-Change                         Max.-Flux-Residual
  Residual-Control   Outer-Iter.   Inner-Iter.     Column Row Layer    Maximum-Head-Change  Column Row Layer    Maximum-Flux-Residual          L2-NORM 
          0                 1           2            50    2     1      -0.3800223059E-01      50    2    1        -0.4450540693E-02      0.2795342078E-01
          0                 2           2            50    2     1       0.3712235015E-02      50    3    1         0.4471933722E-03      0.2764979578E-02
          0                 3           2            50    2     1      -0.3289498624E-03      50    3    1        -0.4017937699E-04      0.2641429228E-03
          0                 4           1            50    2     1       0.2604082860E-04      50    3    1         0.3218878473E-05      0.2208161731E-04
          0                 5           1            50    2     1      -0.1812244392E-05      50    3    1        -0.2262460911E-06      0.1586052701E-05
          0                 6           1            50    2     1       0.1087856258E-06      50    3    1         0.1370751146E-07      0.9694007586E-07

    ------------------------------------------------
       NWT REQUIRED            6 OUTER ITERATIONS 
       AND A TOTAL OF          9 INNER ITERATIONS.
    ------------------------------------------------

 NO OUTPUT CONTROL FOR STRESS PERIOD   18   TIME STEP    9
 
 WELLS WITH REDUCED PUMPING FOR STRESS PERIOD    18 TIME STEP     9
   LAY   ROW   COL         APPL.Q          ACT.Q        GW-HEAD       CELL-BOT
     1     3    50  -0.619974E+00  -0.532391E+00   0.855193E+01   0.000000E+00
     1     5    55  -0.619974E+00  -0.465419E+00   0.748344E+01   0.000000E+00
 
 
 SOLVING FOR HEAD 
                                                   Max.-Head-Change                         Max.-Flux-Residual
  Residual-Control   Outer-Iter.   Inner-Iter.     Column Row Layer    Maximum-Head-Change  Column Row Layer    Maximum-Flux-Residual          L2-NORM 
          0                 1           2            50    2     1      -0.3469422364E-01      50    2    1        -0.3687135888E-02      0.2736032219E-01
          0                 2           2            50    2     1       0.3385853777E-02      50    2    1         0.3679695537E-03      0.2712147378E-02
          0                 3           2            50    2     1      -0.2998664816E-03      50    2    1        -0.3312555778E-04      0.2605674427E-03
          0                 4           1            50    2     1       0.2373021053E-04      50    2    1         0.2653287491E-05      0.2192066628E-04
          0                 5           1            50    2     1      -0.1651096358E-05      50    2    1        -0.1865239906E-06      0.1581816577E-05
          0                 6           1            50    2     1       0.9910140324E-07      50    2    1         0.1130261462E-07      0.9694021220E-07

    ------------------------------------------------
       NWT REQUIRED            6 OUTER ITERATIONS 
       AND A TOTAL OF          9 INNER ITERATIONS.
    ------------------------------------------------

 NO OUTPUT CONTROL FOR STRESS PERIOD   18   TIME STEP   10
 
 WELLS WITH REDUCED PUMPING FOR STRESS PERIOD    18 TIME STEP    10
   LAY   ROW   COL         APPL.Q          ACT.Q        GW-HEAD       CELL-BOT
     1     3    50  -0.620014E+00  -0.530890E+00   0.852643E+01   0.000000E+00
     1     5    55  -0.620014E+00  -0.464229E+00   0.746689E+01   0.000000E+00
 
 
 SOLVING FOR HEAD 
                                                   Max.-Head-Change                         Max.-Flux-Residual
  Residual-Control   Outer-Iter.   Inner-Iter.     Column Row Layer    Maximum-Head-Change  Column Row Layer    Maximum-Flux-Residual          L2-NORM 
          0                 1           2            50    1     1      -0.3212686354E-01      50    2    1        -0.3060437018E-02      0.2693474498E-01
          0                 2           2            50    1     1       0.3166055736E-02      50    2    1         0.3054371826E-03      0.2675073617E-02
          0                 3           2            50    1     1      -0.2819462948E-03      50    2    1        -0.2749624611E-04      0.2583382726E-03
          0                 4           1            50    1     1       0.2236424400E-04      50    2    1         0.2202392349E-05      0.2186662385E-04
          0                 5           1            50    1     1      -0.1557161957E-05      50    2    1        -0.1548264141E-06      0.1585476283E-05
          0                 6           1            50    1     1       0.9347249248E-07      50    2    1         0.9381866783E-08      0.9745475864E-07

    ------------------------------------------------
       NWT REQUIRED            6 OUTER ITERATIONS 
       AND A TOTAL OF          9 INNER ITERATIONS.
    ------------------------------------------------

 NO OUTPUT CONTROL FOR STRESS PERIOD   18   TIME STEP   11
 
 WELLS WITH REDUCED PUMPING FOR STRESS PERIOD    18 TIME STEP    11
   LAY   ROW   COL         APPL.Q          ACT.Q        GW-HEAD       CELL-BOT
     1     3    50  -0.620020E+00  -0.529576E+00   0.850462E+01   0.000000E+00
     1     5    55  -0.620020E+00  -0.463189E+00   0.745276E+01   0.000000E+00
 
 
 SOLVING FOR HEAD 
                                                   Max.-Head-Change                         Max.-Flux-Residual
  Residual-Control   Outer-Iter.   Inner-Iter.     Column Row Layer    Maximum-Head-Change  Column Row Layer    Maximum-Flux-Residual          L2-NORM 
          0                 1           2            50    1     1      -0.3107092939E-01      50    1    1        -0.2573967555E-02      0.2660104395E-01
          0                 2           2            50    1     1       0.3058604413E-02      50    1    1         0.2569986878E-03      0.2644030172E-02
          0                 3           2            50    1     1      -0.2723012678E-03      50    1    1        -0.2313398771E-04      0.2565960215E-03
          0                 4           1            50    1     1       0.2160251749E-04      50    1    1         0.1852999721E-05      0.2185670686E-04
          0                 5           1            50    1     1      -0.1504191560E-05      71    4    1         0.1431419285E-06      0.1592904836E-05
          0                 6           1            50    1     1       0.9029025214E-07      71    4    1        -0.9024592629E-08      0.9824270821E-07

    ------------------------------------------------
       NWT REQUIRED            6 OUTER ITERATIONS 
       AND A TOTAL OF          9 INNER ITERATIONS.
    ------------------------------------------------

 NO OUTPUT CONTROL FOR STRESS PERIOD   18   TIME STEP   12
 
 WELLS WITH REDUCED PUMPING FOR STRESS PERIOD    18 TIME STEP    12
   LAY   ROW   COL         APPL.Q          ACT.Q        GW-HEAD       CELL-BOT
     1     3    50  -0.619976E+00  -0.528397E+00   0.848587E+01   0.000000E+00
     1     5    55  -0.619976E+00  -0.462246E+00   0.744045E+01   0.000000E+00
 
 
 SOLVING FOR HEAD 
                                                   Max.-Head-Change                         Max.-Flux-Residual
  Residual-Control   Outer-Iter.   Inner-Iter.     Column Row Layer    Maximum-Head-Change  Column Row Layer    Maximum-Flux-Residual          L2-NORM 
          0                 1           2            50    1     1      -0.2968783196E-01      50    1    1        -0.2263304390E-02      0.2635383343E-01
          0                 2           2            50    1     1       0.2920218309E-02      50    1    1         0.2259390161E-03      0.2619548698E-02
          0                 3           2            50    1     1      -0.2598702992E-03      50    1    1        -0.2033852879E-04      0.2553953683E-03
          0                 4           1            50    1     1       0.2061209252E-04      71    4    1        -0.1892747004E-05      0.2189494646E-04
          0                 5           1            50    1     1      -0.1434925471E-05      71    4    1         0.1496535855E-06      0.1604302637E-05
          0                 6           1            50    1     1       0.8612068032E-07      71    4    1        -0.9502269194E-08      0.9931132844E-07

    ------------------------------------------------
       NWT REQUIRED            6 OUTER ITERATIONS 
       AND A TOTAL OF          9 INNER ITERATIONS.
    ------------------------------------------------

 NO OUTPUT CONTROL FOR STRESS PERIOD   18   TIME STEP   13
 
 WELLS WITH REDUCED PUMPING FOR STRESS PERIOD    18 TIME STEP    13
   LAY   ROW   COL         APPL.Q          ACT.Q        GW-HEAD       CELL-BOT
     1     3    50  -0.619981E+00  -0.527377E+00   0.846910E+01   0.000000E+00
     1     5    55  -0.619981E+00  -0.461415E+00   0.742919E+01   0.000000E+00
 
 
 SOLVING FOR HEAD 
                                                   Max.-Head-Change                         Max.-Flux-Residual
  Residual-Control   Outer-Iter.   Inner-Iter.     Column Row Layer    Maximum-Head-Change  Column Row Layer    Maximum-Flux-Residual          L2-NORM 
          0                 1           2            50    1     1      -0.2813513571E-01      50    1    1        -0.1966101324E-02      0.2616630840E-01
          0                 2           2            50    1     1       0.2764477734E-02      50    1    1         0.1962535424E-03      0.2601676719E-02
          0                 3           2            50    1     1      -0.2458549586E-03      71    4    1         0.1819141481E-04      0.2547610241E-03
          0                 4           1            50    1     1       0.1949450210E-04      71    4    1        -0.1953521052E-05      0.2197917493E-04
          0                 5           1            50    1     1      -0.1356716277E-05      71    4    1         0.1560230185E-06      0.1619176798E-05
          0                 6           1            50    1     1       0.8141203520E-07      71    4    1        -0.9978492699E-08      0.1006168524E-06

    ------------------------------------------------
       NWT REQUIRED            6 OUTER ITERATIONS 
       AND A TOTAL OF          9 INNER ITERATIONS.
    ------------------------------------------------

 NO OUTPUT CONTROL FOR STRESS PERIOD   18   TIME STEP   14
 
 WELLS WITH REDUCED PUMPING FOR STRESS PERIOD    18 TIME STEP    14
   LAY   ROW   COL         APPL.Q          ACT.Q        GW-HEAD       CELL-BOT
     1     3    50  -0.620013E+00  -0.526454E+00   0.845363E+01   0.000000E+00
     1     5    55  -0.620013E+00  -0.460654E+00   0.741861E+01   0.000000E+00
 
 
 SOLVING FOR HEAD 
                                                   Max.-Head-Change                         Max.-Flux-Residual
  Residual-Control   Outer-Iter.   Inner-Iter.     Column Row Layer    Maximum-Head-Change  Column Row Layer    Maximum-Flux-Residual          L2-NORM 
          0                 1           2            71    7     1      -0.2981155416E-01      50    1    1        -0.1694057864E-02      0.2601055277E-01
          0                 2           2            72    7     1       0.2733054065E-02      50    1    1         0.1690949975E-03      0.2586464022E-02
          0                 3           2            50    1     1      -0.2312552721E-03      71    4    1         0.1849876864E-04      0.2543092403E-03
          0                 4           1            50    1     1       0.1832926200E-04      71    4    1        -0.2011433558E-05      0.2207453585E-04
          0                 5           1            50    1     1      -0.1275089987E-05      71    4    1         0.1622041257E-06      0.1635052760E-05
          0                 6           1            50    1     1       0.7649578334E-07      71    4    1        -0.1044919529E-07      0.1020187571E-06

    ------------------------------------------------
       NWT REQUIRED            6 OUTER ITERATIONS 
       AND A TOTAL OF          9 INNER ITERATIONS.
    ------------------------------------------------

 NO OUTPUT CONTROL FOR STRESS PERIOD   18   TIME STEP   15
 
 WELLS WITH REDUCED PUMPING FOR STRESS PERIOD    18 TIME STEP    15
   LAY   ROW   COL         APPL.Q          ACT.Q        GW-HEAD       CELL-BOT
     1     3    50  -0.620013E+00  -0.525573E+00   0.843932E+01   0.000000E+00
     1     5    55  -0.620013E+00  -0.459915E+00   0.740869E+01   0.000000E+00
 
 
 SOLVING FOR HEAD 
                                                   Max.-Head-Change                         Max.-Flux-Residual
  Residual-Control   Outer-Iter.   Inner-Iter.     Column Row Layer    Maximum-Head-Change  Column Row Layer    Maximum-Flux-Residual          L2-NORM 
          0                 1           2            71    7     1      -0.3267853094E-01      71    7    1        -0.1642383485E-02      0.2590133276E-01
          0                 2           2            72    7     1       0.2979418307E-02      71    7    1         0.1642295908E-03      0.2609812161E-02
          0                 3           2            72    7     1      -0.2496735631E-03      71    4    1         0.1876473058E-04      0.2574778057E-03
          0                 4           1            72    7     1       0.1895796584E-04      71    4    1        -0.2064473108E-05      0.2239342287E-04
          0                 5           1            72    7     1      -0.1281670333E-05      71    4    1         0.1680435435E-06      0.1661606021E-05
          0                 6           1            70    1     1       0.7574764337E-07      71    4    1        -0.1090526958E-07      0.1038434700E-06

    ------------------------------------------------
       NWT REQUIRED            6 OUTER ITERATIONS 
       AND A TOTAL OF          9 INNER ITERATIONS.
    ------------------------------------------------

 NO OUTPUT CONTROL FOR STRESS PERIOD   18   TIME STEP   16
 
 WELLS WITH REDUCED PUMPING FOR STRESS PERIOD    18 TIME STEP    16
   LAY   ROW   COL         APPL.Q          ACT.Q        GW-HEAD       CELL-BOT
     1     3    50  -0.620013E+00  -0.524742E+00   0.842587E+01   0.000000E+00
     1     5    55  -0.620013E+00  -0.459209E+00   0.739919E+01   0.000000E+00
 
 
 SOLVING FOR HEAD 
                                                   Max.-Head-Change                         Max.-Flux-Residual
  Residual-Control   Outer-Iter.   Inner-Iter.     Column Row Layer    Maximum-Head-Change  Column Row Layer    Maximum-Flux-Residual          L2-NORM 
          0                 1           2            72    7     1      -0.3581096662E-01      71    7    1        -0.1637398364E-02      0.2536699237E-01
          0                 2           2            72    7     1       0.3246006413E-02      83    4    1        -0.1642345773E-03      0.2605660903E-02
          0                 3           2            72    7     1      -0.2706226895E-03      83    4    1         0.2049598397E-04      0.2576665716E-03
          0                 4           1            72    7     1       0.2044376703E-04      71    4    1        -0.2113493135E-05      0.2239388447E-04
          0                 5           1            72    7     1      -0.1375639448E-05      71    4    1         0.1735805171E-06      0.1660791414E-05
          0                 6           1            70    1     1       0.8098043379E-07      71    4    1        -0.1134679906E-07      0.1037973278E-06

    ------------------------------------------------
       NWT REQUIRED            6 OUTER ITERATIONS 
       AND A TOTAL OF          9 INNER ITERATIONS.
    ------------------------------------------------

 NO OUTPUT CONTROL FOR STRESS PERIOD   18   TIME STEP   17
 
 WELLS WITH REDUCED PUMPING FOR STRESS PERIOD    18 TIME STEP    17
   LAY   ROW   COL         APPL.Q          ACT.Q        GW-HEAD       CELL-BOT
     1     3    50  -0.619992E+00  -0.523939E+00   0.841319E+01   0.000000E+00
     1     5    55  -0.619992E+00  -0.458513E+00   0.739006E+01   0.000000E+00
 
 
 SOLVING FOR HEAD 
                                                   Max.-Head-Change                         Max.-Flux-Residual
  Residual-Control   Outer-Iter.   Inner-Iter.     Column Row Layer    Maximum-Head-Change  Column Row Layer    Maximum-Flux-Residual          L2-NORM 
          0                 1           2            71    7     1      -0.3919763103E-01      71    7    1        -0.1631927629E-02      0.2399782973E-01
          0                 2           2            72    7     1       0.3528156039E-02      71    7    1         0.1631800857E-03      0.2456828517E-02
          0                 3           2            72    7     1      -0.2927750679E-03      77    4    1         0.2245387600E-04      0.2446919132E-03
          0                 4           1            72    7     1       0.2201064836E-04      77    4    1        -0.2237109385E-05      0.2144051099E-04
          0                 5           1            72    7     1      -0.1473974780E-05      71    4    1         0.1787035000E-06      0.1599588036E-05
          0                 6           1            71    7     1       0.8643223791E-07      74    4    1        -0.1179885523E-07      0.1003764893E-06

    ------------------------------------------------
       NWT REQUIRED            6 OUTER ITERATIONS 
       AND A TOTAL OF          9 INNER ITERATIONS.
    ------------------------------------------------

 NO OUTPUT CONTROL FOR STRESS PERIOD   18   TIME STEP   18
 
 WELLS WITH REDUCED PUMPING FOR STRESS PERIOD    18 TIME STEP    18
   LAY   ROW   COL         APPL.Q          ACT.Q        GW-HEAD       CELL-BOT
     1     3    50  -0.619989E+00  -0.523176E+00   0.840096E+01   0.000000E+00
     1     5    55  -0.619989E+00  -0.457838E+00   0.738104E+01   0.000000E+00
 
 
 SOLVING FOR HEAD 
                                                   Max.-Head-Change                         Max.-Flux-Residual
  Residual-Control   Outer-Iter.   Inner-Iter.     Column Row Layer    Maximum-Head-Change  Column Row Layer    Maximum-Flux-Residual          L2-NORM 
          0                 1           2            70    7     1      -0.4206752735E-01      71    7    1        -0.1624619759E-02      0.2316224028E-01
          0                 2           2            69    7     1       0.3768922522E-02      73    4    1        -0.1697974566E-03      0.2368939438E-02
          0                 3           2            69    7     1      -0.3109797165E-03      72    4    1         0.2402987534E-04      0.2372357579E-03
          0                 4           1            69    1     1       0.2332901768E-04      72    4    1        -0.2451006305E-05      0.2091723841E-04
          0                 5           1            69    1     1      -0.1563241046E-05      72    4    1         0.1955279192E-06      0.1567517511E-05
          0                 6           1            69    1     1       0.9165632095E-07      72    4    1        -0.1265024530E-07      0.9867591365E-07

    ------------------------------------------------
       NWT REQUIRED            6 OUTER ITERATIONS 
       AND A TOTAL OF          9 INNER ITERATIONS.
    ------------------------------------------------

 NO OUTPUT CONTROL FOR STRESS PERIOD   18   TIME STEP   19
 
 WELLS WITH REDUCED PUMPING FOR STRESS PERIOD    18 TIME STEP    19
   LAY   ROW   COL         APPL.Q          ACT.Q        GW-HEAD       CELL-BOT
     1     3    50  -0.619987E+00  -0.522433E+00   0.838909E+01   0.000000E+00
     1     5    55  -0.619987E+00  -0.457163E+00   0.737204E+01   0.000000E+00
 
 
 SOLVING FOR HEAD 
                                                   Max.-Head-Change                         Max.-Flux-Residual
  Residual-Control   Outer-Iter.   Inner-Iter.     Column Row Layer    Maximum-Head-Change  Column Row Layer    Maximum-Flux-Residual          L2-NORM 
          0                 1           2            68    7     1      -0.4364555973E-01      98    4    1         0.2611122754E-02      0.2529752369E-01
          0                 2           2            68    7     1       0.3916319046E-02     100    4    1        -0.2373256112E-03      0.2539147074E-02
          0                 3           2            68    1     1      -0.3236037522E-03      70    4    1         0.2530156253E-04      0.2465542552E-03
          0                 4           1            68    1     1       0.2431284464E-04      70    4    1        -0.2500416013E-05      0.2130373142E-04
          0                 5           1            68    1     1      -0.1631721634E-05      70    4    1         0.1965746197E-06      0.1579083846E-05
          0                 6           1            68    1     1       0.9584539849E-07      70    4    1        -0.1262893079E-07      0.9892339851E-07

    ------------------------------------------------
       NWT REQUIRED            6 OUTER ITERATIONS 
       AND A TOTAL OF          9 INNER ITERATIONS.
    ------------------------------------------------

 NO OUTPUT CONTROL FOR STRESS PERIOD   18   TIME STEP   20
 
 WELLS WITH REDUCED PUMPING FOR STRESS PERIOD    18 TIME STEP    20
   LAY   ROW   COL         APPL.Q          ACT.Q        GW-HEAD       CELL-BOT
     1     3    50  -0.620007E+00  -0.521710E+00   0.837725E+01   0.000000E+00
     1     5    55  -0.620007E+00  -0.456490E+00   0.736284E+01   0.000000E+00
 
 
 SOLVING FOR HEAD 
                                                   Max.-Head-Change                         Max.-Flux-Residual
  Residual-Control   Outer-Iter.   Inner-Iter.     Column Row Layer    Maximum-Head-Change  Column Row Layer    Maximum-Flux-Residual          L2-NORM 
          0                 1           2            71    7     1      -0.4511481564E-01      22    4    1         0.2023734228E-02      0.2154362607E-01
          0                 2           2            69    7     1       0.4001622637E-02      81    4    1        -0.2568382846E-03      0.2263490405E-02
          0                 3           2            68    7     1      -0.3291830639E-03      81    4    1         0.2654944520E-04      0.2255897899E-03
          0                 4           1            67    1     1       0.2472053495E-04      67    4    1        -0.2371991958E-05      0.1971489042E-04
          0                 5           1            67    1     1      -0.1659345552E-05      67    4    1         0.1846851880E-06      0.1467104480E-05
          0                 6           1            67    1     1       0.9742820707E-07      67    4    1        -0.1179164144E-07      0.9194827370E-07

    ------------------------------------------------
       NWT REQUIRED            6 OUTER ITERATIONS 
       AND A TOTAL OF          9 INNER ITERATIONS.
    ------------------------------------------------

 NO OUTPUT CONTROL FOR STRESS PERIOD   18   TIME STEP   21
 
 WELLS WITH REDUCED PUMPING FOR STRESS PERIOD    18 TIME STEP    21
   LAY   ROW   COL         APPL.Q          ACT.Q        GW-HEAD       CELL-BOT
     1     3    50  -0.620000E+00  -0.520978E+00   0.836566E+01   0.000000E+00
     1     5    55  -0.620000E+00  -0.455791E+00   0.735357E+01   0.000000E+00
 
 
 SOLVING FOR HEAD 
                                                   Max.-Head-Change                         Max.-Flux-Residual
  Residual-Control   Outer-Iter.   Inner-Iter.     Column Row Layer    Maximum-Head-Change  Column Row Layer    Maximum-Flux-Residual          L2-NORM 
          0                 1           2            70    7     1      -0.4852404470E-01      27    4    1         0.2060717989E-02      0.1939343885E-01
          0                 2           2            70    7     1       0.4260518686E-02      76    4    1        -0.2552987122E-03      0.2057702473E-02
          0                 3           2            70    7     1      -0.3439073325E-03      76    4    1         0.2837217794E-04      0.2071668896E-03
          0                 4           1            70    7     1       0.2525089225E-04      76    4    1        -0.2563837874E-05      0.1821876052E-04
          0                 5           1            70    7     1      -0.1657273856E-05      76    4    1         0.1930717310E-06      0.1359587992E-05
          0                 6           1            69    7     1       0.9584374812E-07      74    4    1        -0.1217297196E-07      0.8531439106E-07

    ------------------------------------------------
       NWT REQUIRED            6 OUTER ITERATIONS 
       AND A TOTAL OF          9 INNER ITERATIONS.
    ------------------------------------------------

 NO OUTPUT CONTROL FOR STRESS PERIOD   18   TIME STEP   22
 
 WELLS WITH REDUCED PUMPING FOR STRESS PERIOD    18 TIME STEP    22
   LAY   ROW   COL         APPL.Q          ACT.Q        GW-HEAD       CELL-BOT
     1     3    50  -0.619996E+00  -0.520251E+00   0.835416E+01   0.000000E+00
     1     5    55  -0.619996E+00  -0.455073E+00   0.734404E+01   0.000000E+00
 
 
 SOLVING FOR HEAD 
                                                   Max.-Head-Change                         Max.-Flux-Residual
  Residual-Control   Outer-Iter.   Inner-Iter.     Column Row Layer    Maximum-Head-Change  Column Row Layer    Maximum-Flux-Residual          L2-NORM 
          0                 1           2            69    7     1      -0.5077718241E-01      31    4    1         0.1862773844E-02      0.1771772638E-01
          0                 2           2            69    1     1       0.4448260063E-02      73    4    1        -0.2569081765E-03      0.1886048025E-02
          0                 3           2            69    1     1      -0.3584754285E-03      72    4    1         0.2938414118E-04      0.1910702328E-03
          0                 4           1            69    1     1       0.2629481356E-04      72    4    1        -0.2701892852E-05      0.1688247903E-04
          0                 5           1            69    1     1      -0.1724551767E-05      72    4    1         0.2045449605E-06      0.1262585491E-05
          0                 6           1            69    1     1       0.9943880478E-07      72    4    1        -0.1284903739E-07      0.7932453156E-07

    ------------------------------------------------
       NWT REQUIRED            6 OUTER ITERATIONS 
       AND A TOTAL OF          9 INNER ITERATIONS.
    ------------------------------------------------

 NO OUTPUT CONTROL FOR STRESS PERIOD   18   TIME STEP   23
 
 WELLS WITH REDUCED PUMPING FOR STRESS PERIOD    18 TIME STEP    23
   LAY   ROW   COL         APPL.Q          ACT.Q        GW-HEAD       CELL-BOT
     1     3    50  -0.619992E+00  -0.519521E+00   0.834263E+01   0.000000E+00
     1     5    55  -0.619992E+00  -0.454322E+00   0.733408E+01   0.000000E+00
 
 
 SOLVING FOR HEAD 
                                                   Max.-Head-Change                         Max.-Flux-Residual
  Residual-Control   Outer-Iter.   Inner-Iter.     Column Row Layer    Maximum-Head-Change  Column Row Layer    Maximum-Flux-Residual          L2-NORM 
          0                 1           2            66    7     1      -0.5068276823E-01      35    4    1         0.2144824171E-02      0.1631836858E-01
          0                 2           2            66    7     1       0.4440504852E-02      69    4    1        -0.2577736681E-03      0.1738276130E-02
          0                 3           2            66    7     1      -0.3579826299E-03      69    4    1         0.2941259461E-04      0.1769049060E-03
          0                 4           1            66    1     1       0.2627381623E-04      69    4    1        -0.2675093556E-05      0.1569657256E-04
          0                 5           1            67    1     1      -0.1729743272E-05      69    4    1         0.1985136890E-06      0.1176088324E-05
          0                 6           1            67    1     1       0.1003173463E-06      69    4    1        -0.1232917235E-07      0.7399527249E-07

    ------------------------------------------------
       NWT REQUIRED            6 OUTER ITERATIONS 
       AND A TOTAL OF          9 INNER ITERATIONS.
    ------------------------------------------------

 NO OUTPUT CONTROL FOR STRESS PERIOD   18   TIME STEP   24
 
 WELLS WITH REDUCED PUMPING FOR STRESS PERIOD    18 TIME STEP    24
   LAY   ROW   COL         APPL.Q          ACT.Q        GW-HEAD       CELL-BOT
     1     3    50  -0.619997E+00  -0.518790E+00   0.833099E+01   0.000000E+00
     1     5    55  -0.619997E+00  -0.453537E+00   0.732358E+01   0.000000E+00
 
 
 SOLVING FOR HEAD 
                                                   Max.-Head-Change                         Max.-Flux-Residual
  Residual-Control   Outer-Iter.   Inner-Iter.     Column Row Layer    Maximum-Head-Change  Column Row Layer    Maximum-Flux-Residual          L2-NORM 
          0                 1           2            64    7     1      -0.4817365695E-01      38    4    1         0.2092211594E-02      0.1505477040E-01
          0                 2           2            64    7     1       0.4211885150E-02      67    4    1        -0.2410598908E-03      0.1594573707E-02
          0                 3           2            64    7     1      -0.3397258981E-03      67    4    1         0.2701295610E-04      0.1632431752E-03
          0                 4           1            65    1     1       0.2514627146E-04      67    4    1        -0.2436043609E-05      0.1458217569E-04
          0                 5           1            65    1     1      -0.1672680197E-05      66    4    1         0.1823241806E-06      0.1096274810E-05
          0                 6           1            65    1     1       0.9775551038E-07      66    4    1        -0.1143904349E-07      0.6914459272E-07

    ------------------------------------------------
       NWT REQUIRED            6 OUTER ITERATIONS 
       AND A TOTAL OF          9 INNER ITERATIONS.
    ------------------------------------------------

 NO OUTPUT CONTROL FOR STRESS PERIOD   18   TIME STEP   25
 
 WELLS WITH REDUCED PUMPING FOR STRESS PERIOD    18 TIME STEP    25
   LAY   ROW   COL         APPL.Q          ACT.Q        GW-HEAD       CELL-BOT
     1     3    50  -0.620007E+00  -0.518093E+00   0.831987E+01   0.000000E+00
     1     5    55  -0.620007E+00  -0.452760E+00   0.731317E+01   0.000000E+00
 
 
 SOLVING FOR HEAD 
                                                   Max.-Head-Change                         Max.-Flux-Residual
  Residual-Control   Outer-Iter.   Inner-Iter.     Column Row Layer    Maximum-Head-Change  Column Row Layer    Maximum-Flux-Residual          L2-NORM 
          0                 1           3            72    7     1      -0.4901526510E-01      41    4    1         0.2231558956E-02      0.1408109790E-01
          0                 2           2            71    7     1       0.4118958720E-02      64    4    1        -0.2587423051E-03      0.1476567462E-02
          0                 3           2            71    7     1      -0.3190853702E-03      64    4    1         0.2672370267E-04      0.1517627344E-03
          0                 4           1            63    1     1       0.2308191295E-04      64    4    1        -0.2299939966E-05      0.1365350272E-04
          0                 5           1            63    1     1      -0.1552996375E-05      64    4    1         0.1671216250E-06      0.1030478401E-05
          0                 6           1            63    1     1       0.9165862848E-07      64    4    1        -0.1027377827E-07      0.6520730627E-07

    ------------------------------------------------
       NWT REQUIRED            6 OUTER ITERATIONS 
       AND A TOTAL OF         10 INNER ITERATIONS.
    ------------------------------------------------

 NO OUTPUT CONTROL FOR STRESS PERIOD   18   TIME STEP   26
 
 WELLS WITH REDUCED PUMPING FOR STRESS PERIOD    18 TIME STEP    26
   LAY   ROW   COL         APPL.Q          ACT.Q        GW-HEAD       CELL-BOT
     1     3    50  -0.620004E+00  -0.517653E+00   0.831298E+01   0.000000E+00
     1     5    55  -0.620004E+00  -0.452237E+00   0.730626E+01   0.000000E+00
 
 
 SOLVING FOR HEAD 
                                                   Max.-Head-Change                         Max.-Flux-Residual
  Residual-Control   Outer-Iter.   Inner-Iter.     Column Row Layer    Maximum-Head-Change  Column Row Layer    Maximum-Flux-Residual          L2-NORM 
          0                 1           3            72    7     1      -0.5316993712E-01      43    4    1         0.1930876833E-02      0.1325568706E-01
          0                 2           2            72    7     1       0.4445162428E-02      62    4    1        -0.2128331946E-03      0.1369414241E-02
          0                 3           2            71    7     1      -0.3411564048E-03      62    4    1         0.2153636487E-04      0.1414131354E-03
          0                 4           1            71    7     1       0.2391587997E-04      62    4    1        -0.1829479827E-05      0.1283876304E-04
          0                 5           1            71    7     1      -0.1497263380E-05      72    4    1         0.1461360704E-06      0.9734805428E-06
          0                 6           1            70    1     1       0.8383470619E-07      72    4    1        -0.9793007294E-08      0.6185668135E-07

    ------------------------------------------------
       NWT REQUIRED            6 OUTER ITERATIONS 
       AND A TOTAL OF         10 INNER ITERATIONS.
    ------------------------------------------------

 NO OUTPUT CONTROL FOR STRESS PERIOD   18   TIME STEP   27
 
 WELLS WITH REDUCED PUMPING FOR STRESS PERIOD    18 TIME STEP    27
   LAY   ROW   COL         APPL.Q          ACT.Q        GW-HEAD       CELL-BOT
     1     3    50  -0.620001E+00  -0.517539E+00   0.831121E+01   0.000000E+00
     1     5    55  -0.620001E+00  -0.452018E+00   0.730338E+01   0.000000E+00
 
 
 SOLVING FOR HEAD 
                                                   Max.-Head-Change                         Max.-Flux-Residual
  Residual-Control   Outer-Iter.   Inner-Iter.     Column Row Layer    Maximum-Head-Change  Column Row Layer    Maximum-Flux-Residual          L2-NORM 
          0                 1           3            72    7     1      -0.5767730100E-01      46    4    1         0.2022088886E-02      0.1248121372E-01
          0                 2           2            72    7     1       0.4801474193E-02      59    4    1        -0.1892554504E-03      0.1279644915E-02
          0                 3           2            72    7     1      -0.3660020475E-03      59    4    1         0.1739541172E-04      0.1333728279E-03
          0                 4           1            71    7     1       0.2541818597E-04      72    4    1        -0.1733830837E-05      0.1224996889E-04
          0                 5           1            71    7     1      -0.1570883443E-05      72    4    1         0.1470908764E-06      0.9342250805E-06
          0                 6           1            70    1     1       0.8720039888E-07      72    4    1        -0.9900650966E-08      0.5968455383E-07

    ------------------------------------------------
       NWT REQUIRED            6 OUTER ITERATIONS 
       AND A TOTAL OF         10 INNER ITERATIONS.
    ------------------------------------------------

 NO OUTPUT CONTROL FOR STRESS PERIOD   18   TIME STEP   28
 
 WELLS WITH REDUCED PUMPING FOR STRESS PERIOD    18 TIME STEP    28
   LAY   ROW   COL         APPL.Q          ACT.Q        GW-HEAD       CELL-BOT
     1     3    50  -0.620001E+00  -0.517267E+00   0.830694E+01   0.000000E+00
     1     5    55  -0.620001E+00  -0.451584E+00   0.729763E+01   0.000000E+00
 
 
 SOLVING FOR HEAD 
                                                   Max.-Head-Change                         Max.-Flux-Residual
  Residual-Control   Outer-Iter.   Inner-Iter.     Column Row Layer    Maximum-Head-Change  Column Row Layer    Maximum-Flux-Residual          L2-NORM 
          0                 1           3            72    1     1      -0.6250491175E-01      48    4    1         0.1863350533E-02      0.1204387105E-01
          0                 2           2            72    7     1       0.5183110177E-02      58    4    1        -0.1635824750E-03      0.1220537460E-02
          0                 3           2            72    7     1      -0.3925929021E-03      72    4    1         0.1518879697E-04      0.1279495449E-03
          0                 4           1            71    7     1       0.2702091532E-04      72    4    1        -0.1731448519E-05      0.1185888425E-04
          0                 5           1            71    7     1      -0.1647449007E-05      72    4    1         0.1476477038E-06      0.9066658097E-06
          0                 6           1            70    7     1       0.9097999817E-07      72    4    1        -0.9973122772E-08      0.5805882964E-07

    ------------------------------------------------
       NWT REQUIRED            6 OUTER ITERATIONS 
       AND A TOTAL OF         10 INNER ITERATIONS.
    ------------------------------------------------

 NO OUTPUT CONTROL FOR STRESS PERIOD   18   TIME STEP   29
 
 WELLS WITH REDUCED PUMPING FOR STRESS PERIOD    18 TIME STEP    29
   LAY   ROW   COL         APPL.Q          ACT.Q        GW-HEAD       CELL-BOT
     1     3    50  -0.619996E+00  -0.517055E+00   0.830368E+01   0.000000E+00
     1     5    55  -0.619996E+00  -0.451145E+00   0.729186E+01   0.000000E+00
 
 
 SOLVING FOR HEAD 
                                                   Max.-Head-Change                         Max.-Flux-Residual
  Residual-Control   Outer-Iter.   Inner-Iter.     Column Row Layer    Maximum-Head-Change  Column Row Layer    Maximum-Flux-Residual          L2-NORM 
          0                 1           3            72    1     1      -0.6765295350E-01      56    4    1         0.2845262547E-02      0.1199413797E-01
          0                 2           2            72    7     1       0.5589747811E-02      56    4    1        -0.2209242035E-03      0.1196366122E-02
          0                 3           2            72    7     1      -0.4208461548E-03      56    4    1         0.1514592692E-04      0.1251846397E-03
          0                 4           1            71    7     1       0.2871193964E-04      72    4    1        -0.1725072256E-05      0.1165979505E-04
          0                 5           1            71    7     1      -0.1725125512E-05      72    4    1         0.1478172429E-06      0.8914534253E-06
          0                 6           1            70    7     1       0.9446913250E-07      72    4    1        -0.1001942529E-07      0.5717699714E-07

    ------------------------------------------------
       NWT REQUIRED            6 OUTER ITERATIONS 
       AND A TOTAL OF         10 INNER ITERATIONS.
    ------------------------------------------------

 NO OUTPUT CONTROL FOR STRESS PERIOD   18   TIME STEP   30
 
 WELLS WITH REDUCED PUMPING FOR STRESS PERIOD    18 TIME STEP    30
   LAY   ROW   COL         APPL.Q          ACT.Q        GW-HEAD       CELL-BOT
     1     3    50  -0.619997E+00  -0.517252E+00   0.830677E+01   0.000000E+00
     1     5    55  -0.619997E+00  -0.451107E+00   0.729136E+01   0.000000E+00
 



 STREAM LISTING     PERIOD     18   STEP       30

 LAYER ROW COL. STREAM  RCH.   FLOW INTO    STREAM     FLOW OUT OF   OVRLND.    DIRECT     STREAM      STREAM      STREAM     STREAM  STREAMBED   FLOW TO   CHNG. UNSAT. 
                SEG.NO.  NO.   STRM. RCH.    LOSS       STRM. RCH.   RUNOFF     PRECIP       ET         HEAD        DEPTH      WIDTH  CONDCTNC.   WAT. TAB.

   1    4    1     1     1    4.0470E+01  9.9917E-03   4.0460E+01  0.000E+00  0.000E+00  0.000E+00  1.44347E+02  4.497E+00  9.986E+00  2.000E-03  8.697E-03  1.295E-03
   1    4    2     1     2    4.0460E+01  9.9895E-03   4.0450E+01  0.000E+00  0.000E+00  0.000E+00  1.44046E+02  4.496E+00  9.984E+00  1.999E-03  8.696E-03  1.294E-03
   1    4    3     1     3    4.0450E+01  9.9873E-03   4.0440E+01  0.000E+00  0.000E+00  0.000E+00  1.43746E+02  4.496E+00  9.983E+00  1.999E-03  8.695E-03  1.293E-03
   1    4    4     1     4    4.0440E+01  9.9851E-03   4.0430E+01  0.000E+00  0.000E+00  0.000E+00  1.43445E+02  4.495E+00  9.981E+00  1.999E-03  8.693E-03  1.292E-03
   1    4    5     1     5    4.0430E+01  9.9829E-03   4.0420E+01  0.000E+00  0.000E+00  0.000E+00  1.43145E+02  4.495E+00  9.979E+00  1.999E-03  8.692E-03  1.291E-03
   1    4    6     1     6    4.0420E+01  9.9807E-03   4.0410E+01  0.000E+00  0.000E+00  0.000E+00  1.42844E+02  4.494E+00  9.978E+00  1.998E-03  8.690E-03  1.291E-03
   1    4    7     1     7    4.0410E+01  9.9785E-03   4.0400E+01  0.000E+00  0.000E+00  0.000E+00  1.42544E+02  4.494E+00  9.976E+00  1.998E-03  8.688E-03  1.290E-03
   1    4    8     1     8    4.0400E+01  9.9763E-03   4.0390E+01  0.000E+00  0.000E+00  0.000E+00  1.42244E+02  4.494E+00  9.974E+00  1.998E-03  8.686E-03  1.290E-03
   1    4    9     1     9    4.0390E+01  9.9741E-03   4.0380E+01  0.000E+00  0.000E+00  0.000E+00  1.41943E+02  4.493E+00  9.972E+00  1.998E-03  8.684E-03  1.290E-03
   1    4   10     1    10    4.0380E+01  9.9719E-03   4.0370E+01  0.000E+00  0.000E+00  0.000E+00  1.41643E+02  4.493E+00  9.971E+00  1.997E-03  8.682E-03  1.290E-03
   1    4   11     1    11    4.0370E+01  9.9697E-03   4.0360E+01  0.000E+00  0.000E+00  0.000E+00  1.41342E+02  4.492E+00  9.969E+00  1.997E-03  8.679E-03  1.291E-03
   1    4   12     1    12    4.0360E+01  9.9675E-03   4.0350E+01  0.000E+00  0.000E+00  0.000E+00  1.41042E+02  4.492E+00  9.967E+00  1.997E-03  8.677E-03  1.291E-03
   1    4   13     1    13    4.0350E+01  9.9653E-03   4.0340E+01  0.000E+00  0.000E+00  0.000E+00  1.40741E+02  4.491E+00  9.966E+00  1.997E-03  8.674E-03  1.291E-03
   1    4   14     1    14    4.0340E+01  9.9631E-03   4.0330E+01  0.000E+00  0.000E+00  0.000E+00  1.40441E+02  4.491E+00  9.964E+00  1.996E-03  8.671E-03  1.292E-03
   1    4   15     1    15    4.0330E+01  9.9609E-03   4.0320E+01  0.000E+00  0.000E+00  0.000E+00  1.40141E+02  4.491E+00  9.962E+00  1.996E-03  8.668E-03  1.293E-03
   1    4   16     1    16    4.0320E+01  9.9587E-03   4.0310E+01  0.000E+00  0.000E+00  0.000E+00  1.39840E+02  4.490E+00  9.960E+00  1.996E-03  8.665E-03  1.293E-03
   1    4   17     1    17    4.0310E+01  9.9565E-03   4.0300E+01  0.000E+00  0.000E+00  0.000E+00  1.39540E+02  4.490E+00  9.959E+00  1.995E-03  8.663E-03  1.294E-03
   1    4   18     1    18    4.0300E+01  9.9543E-03   4.0290E+01  0.000E+00  0.000E+00  0.000E+00  1.39239E+02  4.489E+00  9.957E+00  1.995E-03  8.660E-03  1.295E-03
   1    4   19     1    19    4.0290E+01  9.9522E-03   4.0281E+01  0.000E+00  0.000E+00  0.000E+00  1.38939E+02  4.489E+00  9.955E+00  1.995E-03  8.657E-03  1.296E-03
   1    4   20     1    20    4.0281E+01  9.9500E-03   4.0271E+01  0.000E+00  0.000E+00  0.000E+00  1.38638E+02  4.488E+00  9.954E+00  1.995E-03  8.654E-03  1.296E-03
   1    4   21     1    21    4.0271E+01  9.9478E-03   4.0261E+01  0.000E+00  0.000E+00  0.000E+00  1.38338E+02  4.488E+00  9.952E+00  1.994E-03  8.651E-03  1.297E-03
   1    4   22     1    22    4.0261E+01  9.9456E-03   4.0251E+01  0.000E+00  0.000E+00  0.000E+00  1.38038E+02  4.488E+00  9.950E+00  1.994E-03  8.660E-03  1.286E-03
   1    4   23     1    23    4.0251E+01  9.9434E-03   4.0241E+01  0.000E+00  0.000E+00  0.000E+00  1.37737E+02  4.487E+00  9.948E+00  1.994E-03  8.662E-03  1.281E-03
   1    4   24     1    24    4.0241E+01  9.9412E-03   4.0231E+01  0.000E+00  0.000E+00  0.000E+00  1.37437E+02  4.487E+00  9.947E+00  1.994E-03  8.659E-03  1.282E-03
   1    4   25     1    25    4.0231E+01  9.9390E-03   4.0221E+01  0.000E+00  0.000E+00  0.000E+00  1.37136E+02  4.486E+00  9.945E+00  1.993E-03  8.657E-03  1.282E-03
   1    4   26     1    26    4.0221E+01  9.9368E-03   4.0211E+01  0.000E+00  0.000E+00  0.000E+00  1.36836E+02  4.486E+00  9.943E+00  1.993E-03  8.654E-03  1.283E-03
   1    4   27     1    27    4.0211E+01  9.9346E-03   4.0201E+01  0.000E+00  0.000E+00  0.000E+00  1.36535E+02  4.485E+00  9.942E+00  1.993E-03  8.652E-03  1.283E-03
   1    4   28     1    28    4.0201E+01  9.9324E-03   4.0191E+01  0.000E+00  0.000E+00  0.000E+00  1.36235E+02  4.485E+00  9.940E+00  1.992E-03  8.650E-03  1.283E-03
   1    4   29     1    29    4.0191E+01  9.9302E-03   4.0181E+01  0.000E+00  0.000E+00  0.000E+00  1.35935E+02  4.485E+00  9.938E+00  1.992E-03  8.648E-03  1.282E-03
   1    4   30     1    30    4.0181E+01  9.9281E-03   4.0171E+01  0.000E+00  0.000E+00  0.000E+00  1.35634E+02  4.484E+00  9.936E+00  1.992E-03  8.647E-03  1.282E-03
   1    4   31     1    31    4.0171E+01  9.9259E-03   4.0161E+01  0.000E+00  0.000E+00  0.000E+00  1.35334E+02  4.484E+00  9.935E+00  1.992E-03  8.645E-03  1.280E-03
   1    4   32     1    32    4.0161E+01  9.9237E-03   4.0151E+01  0.000E+00  0.000E+00  0.000E+00  1.35033E+02  4.483E+00  9.933E+00  1.991E-03  8.645E-03  1.279E-03
   1    4   33     1    33    4.0151E+01  9.9215E-03   4.0141E+01  0.000E+00  0.000E+00  0.000E+00  1.34733E+02  4.483E+00  9.931E+00  1.991E-03  8.645E-03  1.277E-03
   1    4   34     1    34    4.0141E+01  9.9193E-03   4.0132E+01  0.000E+00  0.000E+00  0.000E+00  1.34432E+02  4.482E+00  9.930E+00  1.991E-03  8.645E-03  1.274E-03
   1    4   35     1    35    4.0132E+01  9.9171E-03   4.0122E+01  0.000E+00  0.000E+00  0.000E+00  1.34132E+02  4.482E+00  9.928E+00  1.991E-03  8.646E-03  1.271E-03
   1    4   36     1    36    4.0122E+01  9.9149E-03   4.0112E+01  0.000E+00  0.000E+00  0.000E+00  1.33832E+02  4.482E+00  9.926E+00  1.990E-03  8.647E-03  1.268E-03
   1    4   37     1    37    4.0112E+01  9.9127E-03   4.0102E+01  0.000E+00  0.000E+00  0.000E+00  1.33531E+02  4.481E+00  9.924E+00  1.990E-03  8.649E-03  1.264E-03
   1    4   38     1    38    4.0102E+01  9.9106E-03   4.0092E+01  0.000E+00  0.000E+00  0.000E+00  1.33231E+02  4.481E+00  9.923E+00  1.990E-03  8.652E-03  1.259E-03
   1    4   39     1    39    4.0092E+01  9.9084E-03   4.0082E+01  0.000E+00  0.000E+00  0.000E+00  1.32930E+02  4.480E+00  9.921E+00  1.990E-03  8.655E-03  1.253E-03
   1    4   40     1    40    4.0082E+01  9.9062E-03   4.0072E+01  0.000E+00  0.000E+00  0.000E+00  1.32630E+02  4.480E+00  9.919E+00  1.989E-03  8.659E-03  1.247E-03
   1    4   41     1    41    4.0072E+01  9.9040E-03   4.0062E+01  0.000E+00  0.000E+00  0.000E+00  1.32329E+02  4.479E+00  9.918E+00  1.989E-03  8.664E-03  1.240E-03
   1    4   42     1    42    4.0062E+01  9.9018E-03   4.0052E+01  0.000E+00  0.000E+00  0.000E+00  1.32029E+02  4.479E+00  9.916E+00  1.989E-03  8.669E-03  1.233E-03
   1    4   43     1    43    4.0052E+01  9.8996E-03   4.0042E+01  0.000E+00  0.000E+00  0.000E+00  1.31729E+02  4.479E+00  9.914E+00  1.988E-03  8.674E-03  1.226E-03
   1    4   44     1    44    4.0042E+01  9.8974E-03   4.0032E+01  0.000E+00  0.000E+00  0.000E+00  1.31428E+02  4.478E+00  9.912E+00  1.988E-03  8.709E-03  1.188E-03
   1    4   45     1    45    4.0032E+01  9.8953E-03   4.0023E+01  0.000E+00  0.000E+00  0.000E+00  1.31128E+02  4.478E+00  9.911E+00  1.988E-03  8.716E-03  1.180E-03
   1    4   46     1    46    4.0023E+01  9.8931E-03   4.0013E+01  0.000E+00  0.000E+00  0.000E+00  1.30827E+02  4.477E+00  9.909E+00  1.988E-03  8.723E-03  1.170E-03
   1    4   47     1    47    4.0013E+01  9.8909E-03   4.0003E+01  0.000E+00  0.000E+00  0.000E+00  1.30527E+02  4.477E+00  9.907E+00  1.987E-03  8.732E-03  1.159E-03
   1    4   48     1    48    4.0003E+01  9.8887E-03   3.9993E+01  0.000E+00  0.000E+00  0.000E+00  1.30226E+02  4.476E+00  9.906E+00  1.987E-03  8.752E-03  1.136E-03
   1    4   49     1    49    3.9993E+01  9.8865E-03   3.9983E+01  0.000E+00  0.000E+00  0.000E+00  1.29926E+02  4.476E+00  9.904E+00  1.987E-03  8.791E-03  1.096E-03
   1    4   50     1    50    3.9983E+01  9.8844E-03   3.9973E+01  0.000E+00  0.000E+00  0.000E+00  1.29626E+02  4.476E+00  9.902E+00  1.987E-03  5.661E-03  4.224E-03
   1    4   51     1    51    3.9973E+01  9.8822E-03   3.9963E+01  0.000E+00  0.000E+00  0.000E+00  1.29325E+02  4.475E+00  9.900E+00  1.986E-03  5.871E-03  4.011E-03
   1    4   52     1    52    3.9963E+01  9.8800E-03   3.9953E+01  0.000E+00  0.000E+00  0.000E+00  1.29025E+02  4.475E+00  9.899E+00  1.986E-03  6.078E-03  3.802E-03
   1    4   53     1    53    3.9953E+01  9.8778E-03   3.9943E+01  0.000E+00  0.000E+00  0.000E+00  1.28724E+02  4.474E+00  9.897E+00  1.986E-03  6.069E-03  3.808E-03
   1    4   54     1    54    3.9943E+01  9.8756E-03   3.9934E+01  0.000E+00  0.000E+00  0.000E+00  1.28424E+02  4.474E+00  9.895E+00  1.986E-03  5.850E-03  4.025E-03
   1    4   55     1    55    3.9934E+01  9.8734E-03   3.9924E+01  0.000E+00  0.000E+00  0.000E+00  1.28123E+02  4.473E+00  9.894E+00  1.985E-03  5.650E-03  4.223E-03
   1    4   56     1    56    3.9924E+01  9.8713E-03   3.9914E+01  0.000E+00  0.000E+00  0.000E+00  1.27823E+02  4.473E+00  9.892E+00  1.985E-03  8.775E-03  1.096E-03
   1    4   57     1    57    3.9914E+01  9.8691E-03   3.9904E+01  0.000E+00  0.000E+00  0.000E+00  1.27523E+02  4.473E+00  9.890E+00  1.985E-03  8.724E-03  1.145E-03
   1    4   58     1    58    3.9904E+01  9.8669E-03   3.9894E+01  0.000E+00  0.000E+00  0.000E+00  1.27222E+02  4.472E+00  9.889E+00  1.984E-03  8.694E-03  1.173E-03
   1    4   59     1    59    3.9894E+01  9.8647E-03   3.9884E+01  0.000E+00  0.000E+00  0.000E+00  1.26922E+02  4.472E+00  9.887E+00  1.984E-03  8.677E-03  1.188E-03
   1    4   60     1    60    3.9884E+01  9.8625E-03   3.9874E+01  0.000E+00  0.000E+00  0.000E+00  1.26621E+02  4.471E+00  9.885E+00  1.984E-03  8.662E-03  1.200E-03
   1    4   61     1    61    3.9874E+01  9.8604E-03   3.9865E+01  0.000E+00  0.000E+00  0.000E+00  1.26321E+02  4.471E+00  9.883E+00  1.984E-03  8.650E-03  1.210E-03
   1    4   62     1    62    3.9865E+01  9.8582E-03   3.9855E+01  0.000E+00  0.000E+00  0.000E+00  1.26020E+02  4.470E+00  9.882E+00  1.983E-03  8.639E-03  1.219E-03
   1    4   63     1    63    3.9855E+01  9.8560E-03   3.9845E+01  0.000E+00  0.000E+00  0.000E+00  1.25720E+02  4.470E+00  9.880E+00  1.983E-03  8.617E-03  1.239E-03
   1    4   64     1    64    3.9845E+01  9.8538E-03   3.9835E+01  0.000E+00  0.000E+00  0.000E+00  1.25420E+02  4.470E+00  9.878E+00  1.983E-03  8.594E-03  1.260E-03
   1    4   65     1    65    3.9835E+01  9.8517E-03   3.9825E+01  0.000E+00  0.000E+00  0.000E+00  1.25119E+02  4.469E+00  9.877E+00  1.983E-03  8.586E-03  1.266E-03
   1    4   66     1    66    3.9825E+01  9.8495E-03   3.9815E+01  0.000E+00  0.000E+00  0.000E+00  1.24819E+02  4.469E+00  9.875E+00  1.982E-03  8.579E-03  1.270E-03
   1    4   67     1    67    3.9815E+01  9.8473E-03   3.9805E+01  0.000E+00  0.000E+00  0.000E+00  1.24518E+02  4.468E+00  9.873E+00  1.982E-03  8.573E-03  1.274E-03
   1    4   68     1    68    3.9805E+01  9.8451E-03   3.9796E+01  0.000E+00  0.000E+00  0.000E+00  1.24218E+02  4.468E+00  9.871E+00  1.982E-03  8.568E-03  1.277E-03
   1    4   69     1    69    3.9796E+01  9.8430E-03   3.9786E+01  0.000E+00  0.000E+00  0.000E+00  1.23917E+02  4.467E+00  9.870E+00  1.981E-03  8.564E-03  1.279E-03
   1    4   70     1    70    3.9786E+01  9.8408E-03   3.9776E+01  0.000E+00  0.000E+00  0.000E+00  1.23617E+02  4.467E+00  9.868E+00  1.981E-03  8.561E-03  1.280E-03
   1    4   71     1    71    3.9776E+01  9.8386E-03   3.9766E+01  0.000E+00  0.000E+00  0.000E+00  1.23317E+02  4.467E+00  9.866E+00  1.981E-03  8.559E-03  1.279E-03
   1    4   72     1    72    3.9766E+01  9.8364E-03   3.9756E+01  0.000E+00  0.000E+00  0.000E+00  1.23016E+02  4.466E+00  9.865E+00  1.981E-03  8.558E-03  1.278E-03
   1    4   73     1    73    3.9756E+01  9.8343E-03   3.9746E+01  0.000E+00  0.000E+00  0.000E+00  1.22716E+02  4.466E+00  9.863E+00  1.980E-03  8.558E-03  1.277E-03
   1    4   74     1    74    3.9746E+01  9.8321E-03   3.9737E+01  0.000E+00  0.000E+00  0.000E+00  1.22415E+02  4.465E+00  9.861E+00  1.980E-03  8.558E-03  1.274E-03
   1    4   75     1    75    3.9737E+01  9.8299E-03   3.9727E+01  0.000E+00  0.000E+00  0.000E+00  1.22115E+02  4.465E+00  9.859E+00  1.980E-03  8.559E-03  1.271E-03
   1    4   76     1    76    3.9727E+01  9.8277E-03   3.9717E+01  0.000E+00  0.000E+00  0.000E+00  1.21814E+02  4.464E+00  9.858E+00  1.980E-03  8.561E-03  1.267E-03
   1    4   77     1    77    3.9717E+01  9.8256E-03   3.9707E+01  0.000E+00  0.000E+00  0.000E+00  1.21514E+02  4.464E+00  9.856E+00  1.979E-03  8.564E-03  1.262E-03
   1    4   78     1    78    3.9707E+01  9.8234E-03   3.9697E+01  0.000E+00  0.000E+00  0.000E+00  1.21214E+02  4.464E+00  9.854E+00  1.979E-03  8.567E-03  1.257E-03
   1    4   79     1    79    3.9697E+01  9.8212E-03   3.9687E+01  0.000E+00  0.000E+00  0.000E+00  1.20913E+02  4.463E+00  9.853E+00  1.979E-03  8.571E-03  1.251E-03
   1    4   80     1    80    3.9687E+01  9.8190E-03   3.9678E+01  0.000E+00  0.000E+00  0.000E+00  1.20613E+02  4.463E+00  9.851E+00  1.979E-03  8.575E-03  1.244E-03
   1    4   81     1    81    3.9678E+01  9.8169E-03   3.9668E+01  0.000E+00  0.000E+00  0.000E+00  1.20312E+02  4.462E+00  9.849E+00  1.978E-03  8.579E-03  1.237E-03
   1    4   82     1    82    3.9668E+01  9.8147E-03   3.9658E+01  0.000E+00  0.000E+00  0.000E+00  1.20012E+02  4.462E+00  9.848E+00  1.978E-03  8.585E-03  1.230E-03
   1    4   83     1    83    3.9658E+01  9.8125E-03   3.9648E+01  0.000E+00  0.000E+00  0.000E+00  1.19711E+02  4.461E+00  9.846E+00  1.978E-03  8.590E-03  1.222E-03
   1    4   84     1    84    3.9648E+01  9.8104E-03   3.9638E+01  0.000E+00  0.000E+00  0.000E+00  1.19411E+02  4.461E+00  9.844E+00  1.977E-03  8.596E-03  1.214E-03
   1    4   85     1    85    3.9638E+01  9.8082E-03   3.9629E+01  0.000E+00  0.000E+00  0.000E+00  1.19111E+02  4.461E+00  9.842E+00  1.977E-03  8.602E-03  1.206E-03
   1    4   86     1    86    3.9629E+01  9.8060E-03   3.9619E+01  0.000E+00  0.000E+00  0.000E+00  1.18810E+02  4.460E+00  9.841E+00  1.977E-03  8.608E-03  1.198E-03
   1    4   87     1    87    3.9619E+01  9.8039E-03   3.9609E+01  0.000E+00  0.000E+00  0.000E+00  1.18510E+02  4.460E+00  9.839E+00  1.977E-03  8.615E-03  1.189E-03
   1    4   88     1    88    3.9609E+01  9.8017E-03   3.9599E+01  0.000E+00  0.000E+00  0.000E+00  1.18209E+02  4.459E+00  9.837E+00  1.976E-03  8.621E-03  1.180E-03
   1    4   89     1    89    3.9599E+01  9.7995E-03   3.9589E+01  0.000E+00  0.000E+00  0.000E+00  1.17909E+02  4.459E+00  9.836E+00  1.976E-03  8.628E-03  1.172E-03
   1    4   90     1    90    3.9589E+01  9.7973E-03   3.9580E+01  0.000E+00  0.000E+00  0.000E+00  1.17608E+02  4.458E+00  9.834E+00  1.976E-03  8.634E-03  1.164E-03
   1    4   91     1    91    3.9580E+01  9.7952E-03   3.9570E+01  0.000E+00  0.000E+00  0.000E+00  1.17308E+02  4.458E+00  9.832E+00  1.976E-03  8.639E-03  1.156E-03
   1    4   92     1    92    3.9570E+01  9.7930E-03   3.9560E+01  0.000E+00  0.000E+00  0.000E+00  1.17008E+02  4.458E+00  9.830E+00  1.975E-03  8.644E-03  1.149E-03
   1    4   93     1    93    3.9560E+01  9.7908E-03   3.9550E+01  0.000E+00  0.000E+00  0.000E+00  1.16707E+02  4.457E+00  9.829E+00  1.975E-03  8.649E-03  1.142E-03
   1    4   94     1    94    3.9550E+01  9.7887E-03   3.9540E+01  0.000E+00  0.000E+00  0.000E+00  1.16407E+02  4.457E+00  9.827E+00  1.975E-03  8.652E-03  1.137E-03
   1    4   95     1    95    3.9540E+01  9.7865E-03   3.9531E+01  0.000E+00  0.000E+00  0.000E+00  1.16106E+02  4.456E+00  9.825E+00  1.975E-03  8.654E-03  1.132E-03
   1    4   96     1    96    3.9531E+01  9.7843E-03   3.9521E+01  0.000E+00  0.000E+00  0.000E+00  1.15806E+02  4.456E+00  9.824E+00  1.974E-03  8.655E-03  1.129E-03
   1    4   97     1    97    3.9521E+01  9.7822E-03   3.9511E+01  0.000E+00  0.000E+00  0.000E+00  1.15505E+02  4.455E+00  9.822E+00  1.974E-03  8.655E-03  1.127E-03
   1    4   98     1    98    3.9511E+01  9.7800E-03   3.9501E+01  0.000E+00  0.000E+00  0.000E+00  1.15205E+02  4.455E+00  9.820E+00  1.974E-03  8.653E-03  1.127E-03
   1    4   99     1    99    3.9501E+01  9.7778E-03   3.9491E+01  0.000E+00  0.000E+00  0.000E+00  1.14905E+02  4.455E+00  9.818E+00  1.973E-03  8.651E-03  1.127E-03
   1    4  100     1   100    3.9491E+01  9.7757E-03   3.9482E+01  0.000E+00  0.000E+00  0.000E+00  1.14604E+02  4.454E+00  9.817E+00  1.973E-03  8.648E-03  1.127E-03



1
  VOLUMETRIC BUDGET FOR UNSATURATED ZONE BENEATH STREAMS AT END OF TIME STEP    30 STRESS PERIOD  18
  ------------------------------------------------------------------------------------------------

    CUMULATIVE VOLUMES             L**3    RATES FOR THIS TIME STEP         L**3/T
    ------------------                     ------------------------


          STREAM LOSS =     19290144.0000            STREAM LOSS =            0.9883
    CHANGE IN STORAGE =      2691898.7500      CHANGE IN STORAGE =            0.1405
       RECHARGE TO GW =     16603006.0000         RECHARGE TO GW =            0.8479

             TOTAL IN =     19290144.0000               TOTAL IN =            0.9883

            TOTAL OUT =     19294904.0000              TOTAL OUT =            0.9883

             IN - OUT =        -4760.0000               IN - OUT =       -1.1921E-07

  PERCENT DISCREPANCY =           -0.01      PERCENT DISCREPANCY =            -0.00



1
  VOLUMETRIC BUDGET FOR ENTIRE MODEL AT END OF TIME STEP   30, STRESS PERIOD  18
  ------------------------------------------------------------------------------

     CUMULATIVE VOLUMES      L**3       RATES FOR THIS TIME STEP      L**3/T
     ------------------                 ------------------------

           IN:                                      IN:
           ---                                      ---
             STORAGE     =    80313720.0000               STORAGE     =           0.2297
       CONSTANT HEAD     =           0.0000         CONSTANT HEAD     =           0.0000
               WELLS     =           0.0000                 WELLS     =           0.0000
     HEAD DEP BOUNDS     =           0.0000       HEAD DEP BOUNDS     =           0.0000
      STREAM LEAKAGE     =    16603057.0000        STREAM LEAKAGE     =           0.8479

                TOTAL IN =    96916776.0000                  TOTAL IN =           1.0775

          OUT:                                     OUT:
          ----                                     ----
             STORAGE     =     2425810.2500               STORAGE     =       4.2009E-03
       CONSTANT HEAD     =           0.0000         CONSTANT HEAD     =           0.0000
               WELLS     =    79460528.0000                 WELLS     =           0.9684
     HEAD DEP BOUNDS     =    15030533.0000       HEAD DEP BOUNDS     =           0.1050
      STREAM LEAKAGE     =           0.0000        STREAM LEAKAGE     =           0.0000

               TOTAL OUT =    96916872.0000                 TOTAL OUT =           1.0775

                IN - OUT =         -96.0000                  IN - OUT =           0.0000

     PERCENT DISCREPANCY =          -0.00         PERCENT DISCREPANCY =           0.00






         TIME SUMMARY AT END OF TIME STEP   30 IN STRESS PERIOD   18
                    SECONDS     MINUTES      HOURS       DAYS        YEARS
                    -----------------------------------------------------------
   TIME STEP LENGTH 2.49961E+05  4166.0      69.434      2.8931     7.92080E-03
 STRESS PERIOD TIME 2.59200E+06  43200.      720.00      30.000     8.21355E-02
         TOTAL TIME 4.66560E+07 7.77600E+05  12960.      540.00      1.4784    
1
1
                            STRESS PERIOD NO.   19, LENGTH =   2592000.    
                            -----------------------------------------------

                              NUMBER OF TIME STEPS =    30

                               MULTIPLIER FOR DELT =     1.100

                            INITIAL TIME STEP SIZE =   15757.40    

 REUSING NON-PARAMETER WELLS FROM LAST STRESS PERIOD

      1 WELL 

 REUSING NON-PARAMETER GHB CELLS FROM LAST STRESS PERIOD

      7 GHB CELLS



 CLASSIFICATION & COUNT OF STREAM SEGMENTS BASED ON SOURCE OF INFLOW:

                HEADWATER     DIVERSION     RECEIVES TRIBUTARY FLOW
                ---------     ---------     -----------------------
                     1              0               0



                    INPUT DATA FOR EACH STREAM SEGMENT
 ---------------------------------------------------------------------------------------------

 SEGMENT    SEG.     INFLOW   OVERLAND   STREAM    STREAM   ICALC  OUTFLOW  DIVERSION PRIORITY
    NO.    LENGTH     RATE     RUNOFF      ET       PPT.    METH.  TO SEG.  FROM SEG.    NO.

      1  2.000E+04 6.556E+01 0.000E+00 0.000E+00 0.000E+00    2        0        0        0


         STREAMBED PROPERTIES AND STREAM DIMENSIONS

 SEGMENT     BED HYD. COND.      BED THICKNESS     ELEV.-TOP OF BED     WIDTH OF STREAM     DEPTH OF STREAM    STREAM ROUGHNESS
    No.     UPPER     LOWER     UPPER     LOWER     UPPER     LOWER     UPPER     LOWER     UPPER     LOWER   CHANNEL      BANK

     1  3.500E-07 3.500E-07                                                                                 3.000E-02 4.000E-02

  EIGHT POINT CROSS-SECTION DATA FOR SEGMENTS WITH ICALC = 2
    X VALUES X VALUES START FROM LEFT SIDE LOOKING DOWNSTREAM

     SEGMENT NO.        X1        X2        X3        X4        X5        X6        X7        X8
            1      0.000E+00 2.000E+00 4.000E+00 6.000E+00 8.000E+00 1.000E+01 1.200E+01 1.400E+01

    Z VALUES ARE RELATIVE TO STREAMBED ELEVATION

     SEGMENT NO.          Z1        Z2        Z3        Z4        Z5        Z6        Z7        Z8
            1      6.000E+00 4.500E+00 3.500E+00 0.000E+00 3.000E-01 3.500E+00 4.500E+00 6.000E+00



 
 SOLVING FOR HEAD 
                                                   Max.-Head-Change                         Max.-Flux-Residual
  Residual-Control   Outer-Iter.   Inner-Iter.     Column Row Layer    Maximum-Head-Change  Column Row Layer    Maximum-Flux-Residual          L2-NORM 
          0                 1           2            50    3     1      -0.1031894803E+01      50    3    1        -0.3747342224E+00      0.4974105373E+00
          0                 2           2            50    3     1       0.1251370309E+00      50    3    1         0.4854397269E-01      0.6142656374E-01
          0                 3           2            50    3     1      -0.1085000041E-01      50    3    1        -0.4250270910E-02      0.5419282830E-02
          0                 4           2            50    3     1       0.8629715533E-03      50    3    1         0.3413932486E-03      0.4350684325E-03
          0                 5           1            50    3     1      -0.6009743198E-04      50    3    1        -0.2399364575E-04      0.3057971832E-04
          0                 6           1            50    3     1       0.3608882939E-05      50    3    1         0.1453953053E-05      0.1853026672E-05
          0                 7           1            50    3     1      -0.1823469326E-06      50    3    1        -0.7413684922E-07      0.9448620311E-07

    ------------------------------------------------
       NWT REQUIRED            7 OUTER ITERATIONS 
       AND A TOTAL OF         11 INNER ITERATIONS.
    ------------------------------------------------

 NO OUTPUT CONTROL FOR STRESS PERIOD   19   TIME STEP    1
 
 WELLS WITH REDUCED PUMPING FOR STRESS PERIOD    19 TIME STEP     1
   LAY   ROW   COL         APPL.Q          ACT.Q        GW-HEAD       CELL-BOT
     1     3    50  -0.106922E+01  -0.782202E+00   0.738997E+01   0.000000E+00
     1     5    55  -0.106922E+01  -0.672345E+00   0.651292E+01   0.000000E+00
 
 
 SOLVING FOR HEAD 
                                                   Max.-Head-Change                         Max.-Flux-Residual
  Residual-Control   Outer-Iter.   Inner-Iter.     Column Row Layer    Maximum-Head-Change  Column Row Layer    Maximum-Flux-Residual          L2-NORM 
          0                 1           2            50    3     1      -0.6004750204E+00      50    3    1        -0.2099776634E+00      0.2776571762E+00
          0                 2           2            50    3     1       0.6340333294E-01      50    3    1         0.2334438510E-01      0.2998264981E-01
          0                 3           2            50    3     1      -0.5564557133E-02      50    3    1        -0.2080701233E-02      0.2684504585E-02
          0                 4           2            50    3     1       0.4414301565E-03      50    3    1         0.1668303823E-03      0.2152805525E-03
          0                 5           1            50    3     1      -0.3074463944E-04      50    3    1        -0.1172696639E-04      0.1513354837E-04
          0                 6           1            50    3     1       0.1846146000E-05      50    3    1         0.7106132141E-06      0.9170376826E-06
          0                 7           1            50    3     1      -0.9328332229E-07      50    3    1        -0.3623421774E-07      0.4675984943E-07

    ------------------------------------------------
       NWT REQUIRED            7 OUTER ITERATIONS 
       AND A TOTAL OF         11 INNER ITERATIONS.
    ------------------------------------------------

 NO OUTPUT CONTROL FOR STRESS PERIOD   19   TIME STEP    2
 
 WELLS WITH REDUCED PUMPING FOR STRESS PERIOD    19 TIME STEP     2
   LAY   ROW   COL         APPL.Q          ACT.Q        GW-HEAD       CELL-BOT
     1     3    50  -0.106993E+01  -0.710800E+00   0.684774E+01   0.000000E+00
     1     5    55  -0.106993E+01  -0.608435E+00   0.605958E+01   0.000000E+00
 
 
 SOLVING FOR HEAD 
                                                   Max.-Head-Change                         Max.-Flux-Residual
  Residual-Control   Outer-Iter.   Inner-Iter.     Column Row Layer    Maximum-Head-Change  Column Row Layer    Maximum-Flux-Residual          L2-NORM 
          0                 1           2            50    3     1      -0.3478340190E+00      50    3    1        -0.1127225243E+00      0.1531876823E+00
          0                 2           2            50    3     1       0.3416521381E-01      50    3    1         0.1177531274E-01      0.1557732477E-01
          0                 3           2            50    3     1      -0.3008520345E-02      50    3    1        -0.1055710444E-02      0.1400112713E-02
          0                 4           2            50    3     1       0.2383313876E-03      50    3    1         0.8459622190E-04      0.1122410355E-03
          0                 5           1            50    3     1      -0.1659828587E-04      50    3    1        -0.5946818466E-05      0.7890608569E-05
          0                 6           1            50    3     1       0.9966525140E-06      50    3    1         0.3603546536E-06      0.4781452369E-06

    ------------------------------------------------
       NWT REQUIRED            6 OUTER ITERATIONS 
       AND A TOTAL OF         10 INNER ITERATIONS.
    ------------------------------------------------

 NO OUTPUT CONTROL FOR STRESS PERIOD   19   TIME STEP    3
 
 WELLS WITH REDUCED PUMPING FOR STRESS PERIOD    19 TIME STEP     3
   LAY   ROW   COL         APPL.Q          ACT.Q        GW-HEAD       CELL-BOT
     1     3    50  -0.107009E+01  -0.667281E+00   0.653129E+01   0.000000E+00
     1     5    55  -0.107009E+01  -0.570888E+00   0.579804E+01   0.000000E+00
 
 
 SOLVING FOR HEAD 
                                                   Max.-Head-Change                         Max.-Flux-Residual
  Residual-Control   Outer-Iter.   Inner-Iter.     Column Row Layer    Maximum-Head-Change  Column Row Layer    Maximum-Flux-Residual          L2-NORM 
          0                 1           2            50    3     1      -0.2027871695E+00      50    3    1        -0.5966230616E-01      0.8761799898E-01
          0                 2           2            50    3     1       0.1867964829E-01      50    3    1         0.6086033964E-02      0.8731417891E-02
          0                 3           2            50    3     1      -0.1683079689E-02      50    3    1        -0.5472632266E-03      0.7814485268E-03
          0                 4           2            50    3     1       0.1333240751E-03      50    3    1         0.4382768343E-04      0.6264343079E-04
          0                 5           1            50    3     1      -0.9292444388E-05      50    3    1        -0.3081382480E-05      0.4403356591E-05
          0                 6           1            50    3     1       0.5578717049E-06      50    3    1         0.1867087046E-06      0.2668282526E-06

    ------------------------------------------------
       NWT REQUIRED            6 OUTER ITERATIONS 
       AND A TOTAL OF         10 INNER ITERATIONS.
    ------------------------------------------------

 NO OUTPUT CONTROL FOR STRESS PERIOD   19   TIME STEP    4
 
 WELLS WITH REDUCED PUMPING FOR STRESS PERIOD    19 TIME STEP     4
   LAY   ROW   COL         APPL.Q          ACT.Q        GW-HEAD       CELL-BOT
     1     3    50  -0.106994E+01  -0.641185E+00   0.634562E+01   0.000000E+00
     1     5    55  -0.106994E+01  -0.548990E+00   0.564696E+01   0.000000E+00
 
 
 SOLVING FOR HEAD 
                                                   Max.-Head-Change                         Max.-Flux-Residual
  Residual-Control   Outer-Iter.   Inner-Iter.     Column Row Layer    Maximum-Head-Change  Column Row Layer    Maximum-Flux-Residual          L2-NORM 
          0                 1           2            50    3     1      -0.1223933093E+00      50    3    1        -0.3194739864E-01      0.5544544024E-01
          0                 2           2            50    2     1       0.1116921265E-01      50    3    1         0.3233397490E-02      0.5456513505E-02
          0                 3           2            50    2     1      -0.9976659353E-03      50    3    1        -0.2909902743E-03      0.4887996866E-03
          0                 4           1            50    2     1       0.7916886932E-04      50    3    1         0.2330316438E-04      0.3920271010E-04
          0                 5           1            50    2     1      -0.5515368853E-05      50    3    1        -0.1638346893E-05      0.2755714732E-05
          0                 6           1            50    2     1       0.3311743291E-06      50    3    1         0.9927165867E-07      0.1669898719E-06

    ------------------------------------------------
       NWT REQUIRED            6 OUTER ITERATIONS 
       AND A TOTAL OF          9 INNER ITERATIONS.
    ------------------------------------------------

 NO OUTPUT CONTROL FOR STRESS PERIOD   19   TIME STEP    5
 
 WELLS WITH REDUCED PUMPING FOR STRESS PERIOD    19 TIME STEP     5
   LAY   ROW   COL         APPL.Q          ACT.Q        GW-HEAD       CELL-BOT
     1     3    50  -0.107007E+01  -0.625398E+00   0.623322E+01   0.000000E+00
     1     5    55  -0.107007E+01  -0.535987E+00   0.555657E+01   0.000000E+00
 
 
 SOLVING FOR HEAD 
                                                   Max.-Head-Change                         Max.-Flux-Residual
  Residual-Control   Outer-Iter.   Inner-Iter.     Column Row Layer    Maximum-Head-Change  Column Row Layer    Maximum-Flux-Residual          L2-NORM 
          0                 1           2            50    2     1      -0.1010297474E+00      50    3    1        -0.1746201263E-01      0.3996386095E-01
          0                 2           2            50    2     1       0.9847230396E-02      50    3    1         0.1765713154E-02      0.3914443181E-02
          0                 3           2            50    2     1      -0.8794295729E-03      50    3    1        -0.1589183171E-03      0.3517507142E-03
          0                 4           1            50    2     1       0.6979009552E-04      50    3    1         0.1272709437E-04      0.2823683104E-04
          0                 5           1            50    2     1      -0.4861908960E-05      50    3    1        -0.8947751696E-06      0.1985248545E-05
          0                 6           1            50    2     1       0.2919387158E-06      50    3    1         0.5421653071E-07      0.1203036723E-06

    ------------------------------------------------
       NWT REQUIRED            6 OUTER ITERATIONS 
       AND A TOTAL OF          9 INNER ITERATIONS.
    ------------------------------------------------

 NO OUTPUT CONTROL FOR STRESS PERIOD   19   TIME STEP    6
 
 WELLS WITH REDUCED PUMPING FOR STRESS PERIOD    19 TIME STEP     6
   LAY   ROW   COL         APPL.Q          ACT.Q        GW-HEAD       CELL-BOT
     1     3    50  -0.106994E+01  -0.615157E+00   0.616148E+01   0.000000E+00
     1     5    55  -0.106994E+01  -0.527683E+00   0.549961E+01   0.000000E+00
 
 
 SOLVING FOR HEAD 
                                                   Max.-Head-Change                         Max.-Flux-Residual
  Residual-Control   Outer-Iter.   Inner-Iter.     Column Row Layer    Maximum-Head-Change  Column Row Layer    Maximum-Flux-Residual          L2-NORM 
          0                 1           2            50    2     1      -0.8865548789E-01      50    2    1        -0.1305062069E-01      0.3221403883E-01
          0                 2           2            50    2     1       0.8632743505E-02      50    2    1         0.1295868639E-02      0.3171069619E-02
          0                 3           2            50    2     1      -0.7706855222E-03      50    2    1        -0.1167261993E-03      0.2864022111E-03
          0                 4           1            50    2     1       0.6116248382E-04      50    2    1         0.9348991963E-05      0.2302229965E-04
          0                 5           1            50    2     1      -0.4260817791E-05      50    2    1        -0.6572299721E-06      0.1619316001E-05
          0                 6           1            50    2     1       0.2558465498E-06      50    2    1         0.3982551552E-07      0.9813303344E-07

    ------------------------------------------------
       NWT REQUIRED            6 OUTER ITERATIONS 
       AND A TOTAL OF          9 INNER ITERATIONS.
    ------------------------------------------------

 NO OUTPUT CONTROL FOR STRESS PERIOD   19   TIME STEP    7
 
 WELLS WITH REDUCED PUMPING FOR STRESS PERIOD    19 TIME STEP     7
   LAY   ROW   COL         APPL.Q          ACT.Q        GW-HEAD       CELL-BOT
     1     3    50  -0.107003E+01  -0.608160E+00   0.611183E+01   0.000000E+00
     1     5    55  -0.107003E+01  -0.522087E+00   0.546059E+01   0.000000E+00
 
 
 SOLVING FOR HEAD 
                                                   Max.-Head-Change                         Max.-Flux-Residual
  Residual-Control   Outer-Iter.   Inner-Iter.     Column Row Layer    Maximum-Head-Change  Column Row Layer    Maximum-Flux-Residual          L2-NORM 
          0                 1           2            50    2     1      -0.7804034746E-01      50    2    1        -0.1041201535E-01      0.2769048107E-01
          0                 2           2            50    2     1       0.7595778055E-02      50    2    1         0.1033923281E-02      0.2746193025E-02
          0                 3           2            50    2     1      -0.6778163186E-03      50    2    1        -0.9312971699E-04      0.2494949642E-03
          0                 4           1            50    2     1       0.5379325411E-04      50    2    1         0.7459081498E-05      0.2009477203E-04
          0                 5           1            50    2     1      -0.3747441671E-05      50    2    1        -0.5243700384E-06      0.1414343109E-05
          0                 6           1            50    2     1       0.2250194273E-06      50    2    1         0.3177473362E-07      0.8572132748E-07

    ------------------------------------------------
       NWT REQUIRED            6 OUTER ITERATIONS 
       AND A TOTAL OF          9 INNER ITERATIONS.
    ------------------------------------------------

 NO OUTPUT CONTROL FOR STRESS PERIOD   19   TIME STEP    8
 
 WELLS WITH REDUCED PUMPING FOR STRESS PERIOD    19 TIME STEP     8
   LAY   ROW   COL         APPL.Q          ACT.Q        GW-HEAD       CELL-BOT
     1     3    50  -0.107004E+01  -0.602915E+00   0.607489E+01   0.000000E+00
     1     5    55  -0.107004E+01  -0.517929E+00   0.543177E+01   0.000000E+00
 
 
 SOLVING FOR HEAD 
                                                   Max.-Head-Change                         Max.-Flux-Residual
  Residual-Control   Outer-Iter.   Inner-Iter.     Column Row Layer    Maximum-Head-Change  Column Row Layer    Maximum-Flux-Residual          L2-NORM 
          0                 1           2            50    1     1      -0.7038153814E-01      50    2    1        -0.8332448640E-02      0.2468163206E-01
          0                 2           2            50    1     1       0.6938284350E-02      50    2    1         0.8278724498E-03      0.2464315913E-02
          0                 3           2            50    1     1      -0.6188878670E-03      50    2    1        -0.7456494730E-04      0.2253127034E-03
          0                 4           1            50    1     1       0.4912109281E-04      50    2    1         0.5972203025E-05      0.1819240411E-04
          0                 5           1            50    1     1      -0.3421756183E-05      50    2    1        -0.4198429167E-06      0.1281724247E-05
          0                 6           1            50    1     1       0.2054585350E-06      50    2    1         0.2544080865E-07      0.7770008585E-07

    ------------------------------------------------
       NWT REQUIRED            6 OUTER ITERATIONS 
       AND A TOTAL OF          9 INNER ITERATIONS.
    ------------------------------------------------

 NO OUTPUT CONTROL FOR STRESS PERIOD   19   TIME STEP    9
 
 WELLS WITH REDUCED PUMPING FOR STRESS PERIOD    19 TIME STEP     9
   LAY   ROW   COL         APPL.Q          ACT.Q        GW-HEAD       CELL-BOT
     1     3    50  -0.106996E+01  -0.598704E+00   0.604565E+01   0.000000E+00
     1     5    55  -0.106996E+01  -0.514606E+00   0.540907E+01   0.000000E+00
 
 
 SOLVING FOR HEAD 
                                                   Max.-Head-Change                         Max.-Flux-Residual
  Residual-Control   Outer-Iter.   Inner-Iter.     Column Row Layer    Maximum-Head-Change  Column Row Layer    Maximum-Flux-Residual          L2-NORM 
          0                 1           2            50    1     1      -0.6858876558E-01      50    1    1        -0.6822929171E-02      0.2269676246E-01
          0                 2           2            50    1     1       0.6756569580E-02      50    1    1         0.6802368898E-03      0.2265275458E-02
          0                 3           2            50    1     1      -0.6026391309E-03      50    1    1        -0.6124223658E-04      0.2082159228E-03
          0                 4           1            50    1     1       0.4783138414E-04      50    1    1         0.4905337774E-05      0.1685710665E-04
          0                 5           1            50    1     1      -0.3331838952E-05      50    1    1        -0.3448172511E-06      0.1189517366E-05
          0                 6           1            50    1     1       0.2000550957E-06      50    1    1         0.2089298728E-07      0.7217764523E-07

    ------------------------------------------------
       NWT REQUIRED            6 OUTER ITERATIONS 
       AND A TOTAL OF          9 INNER ITERATIONS.
    ------------------------------------------------

 NO OUTPUT CONTROL FOR STRESS PERIOD   19   TIME STEP   10
 
 WELLS WITH REDUCED PUMPING FOR STRESS PERIOD    19 TIME STEP    10
   LAY   ROW   COL         APPL.Q          ACT.Q        GW-HEAD       CELL-BOT
     1     3    50  -0.107002E+01  -0.595213E+00   0.602087E+01   0.000000E+00
     1     5    55  -0.107002E+01  -0.511861E+00   0.538985E+01   0.000000E+00
 
 
 SOLVING FOR HEAD 
                                                   Max.-Head-Change                         Max.-Flux-Residual
  Residual-Control   Outer-Iter.   Inner-Iter.     Column Row Layer    Maximum-Head-Change  Column Row Layer    Maximum-Flux-Residual          L2-NORM 
          0                 1           2            50    1     1      -0.6582714745E-01      50    1    1        -0.6045106270E-02      0.2092316016E-01
          0                 2           2            50    1     1       0.6480018923E-02      50    1    1         0.6023582962E-03      0.2098555434E-02
          0                 3           2            50    1     1      -0.5778956373E-03      50    1    1        -0.5423397012E-04      0.1944084146E-03
          0                 4           1            50    1     1       0.4586694627E-04      50    1    1         0.4343968846E-05      0.1579883297E-04
          0                 5           1            50    1     1      -0.3194911469E-05      50    1    1        -0.3053460307E-06      0.1116657132E-05
          0                 6           1            50    1     1       0.1918283862E-06      50    1    1         0.1850075876E-07      0.6777585760E-07

    ------------------------------------------------
       NWT REQUIRED            6 OUTER ITERATIONS 
       AND A TOTAL OF          9 INNER ITERATIONS.
    ------------------------------------------------

 NO OUTPUT CONTROL FOR STRESS PERIOD   19   TIME STEP   11
 
 WELLS WITH REDUCED PUMPING FOR STRESS PERIOD    19 TIME STEP    11
   LAY   ROW   COL         APPL.Q          ACT.Q        GW-HEAD       CELL-BOT
     1     3    50  -0.107004E+01  -0.592131E+00   0.599921E+01   0.000000E+00
     1     5    55  -0.107004E+01  -0.509436E+00   0.537303E+01   0.000000E+00
 
 
 SOLVING FOR HEAD 
                                                   Max.-Head-Change                         Max.-Flux-Residual
  Residual-Control   Outer-Iter.   Inner-Iter.     Column Row Layer    Maximum-Head-Change  Column Row Layer    Maximum-Flux-Residual          L2-NORM 
          0                 1           2            50    1     1      -0.6246525854E-01      50    1    1        -0.5274639342E-02      0.1964161069E-01
          0                 2           2            50    1     1       0.6144582622E-02      50    1    1         0.5254311648E-03      0.1965419300E-02
          0                 3           2            50    1     1      -0.5478686334E-03      50    1    1        -0.4730927626E-04      0.1833790213E-03
          0                 4           1            50    1     1       0.4348253619E-04      50    1    1         0.3789310522E-05      0.1497071764E-04
          0                 5           1            50    1     1      -0.3028702013E-05      50    1    1        -0.2663447085E-06      0.1060563407E-05
          0                 6           1            50    1     1       0.1818418811E-06      50    1    1         0.1613691741E-07      0.6443100365E-07

    ------------------------------------------------
       NWT REQUIRED            6 OUTER ITERATIONS 
       AND A TOTAL OF          9 INNER ITERATIONS.
    ------------------------------------------------

 NO OUTPUT CONTROL FOR STRESS PERIOD   19   TIME STEP   12
 
 WELLS WITH REDUCED PUMPING FOR STRESS PERIOD    19 TIME STEP    12
   LAY   ROW   COL         APPL.Q          ACT.Q        GW-HEAD       CELL-BOT
     1     3    50  -0.106996E+01  -0.589332E+00   0.597988E+01   0.000000E+00
     1     5    55  -0.106996E+01  -0.507230E+00   0.535800E+01   0.000000E+00
 
 
 SOLVING FOR HEAD 
                                                   Max.-Head-Change                         Max.-Flux-Residual
  Residual-Control   Outer-Iter.   Inner-Iter.     Column Row Layer    Maximum-Head-Change  Column Row Layer    Maximum-Flux-Residual          L2-NORM 
          0                 1           2            50    1     1      -0.5880294451E-01      50    1    1        -0.4550554224E-02      0.1842056381E-01
          0                 2           2            50    1     1       0.5779536958E-02      50    1    1         0.4532578602E-03      0.1856378206E-02
          0                 3           2            50    1     1      -0.5151658890E-03      50    1    1        -0.4081133195E-04      0.1747185476E-03
          0                 4           1            50    1     1       0.4088490419E-04      50    1    1         0.3268843592E-05      0.1433798557E-04
          0                 5           1            50    1     1      -0.2847612430E-05      50    1    1        -0.2297463705E-06      0.1018266792E-05
          0                 6           1            50    1     1       0.1709611988E-06      50    1    1         0.1391870652E-07      0.6190730124E-07

    ------------------------------------------------
       NWT REQUIRED            6 OUTER ITERATIONS 
       AND A TOTAL OF          9 INNER ITERATIONS.
    ------------------------------------------------

 NO OUTPUT CONTROL FOR STRESS PERIOD   19   TIME STEP   13
 
 WELLS WITH REDUCED PUMPING FOR STRESS PERIOD    19 TIME STEP    13
   LAY   ROW   COL         APPL.Q          ACT.Q        GW-HEAD       CELL-BOT
     1     3    50  -0.106997E+01  -0.586784E+00   0.596199E+01   0.000000E+00
     1     5    55  -0.106997E+01  -0.505220E+00   0.534405E+01   0.000000E+00
 
 
 SOLVING FOR HEAD 
                                                   Max.-Head-Change                         Max.-Flux-Residual
  Residual-Control   Outer-Iter.   Inner-Iter.     Column Row Layer    Maximum-Head-Change  Column Row Layer    Maximum-Flux-Residual          L2-NORM 
          0                 1           2            50    1     1      -0.5506106809E-01      50    1    1        -0.3894634172E-02      0.1737427848E-01
          0                 2           2            50    1     1       0.5406329521E-02      50    1    1         0.3879421502E-03      0.1761262215E-02
          0                 3           2            50    1     1      -0.4816978588E-03      50    1    1        -0.3493019135E-04      0.1672093623E-03
          0                 4           1            50    1     1       0.3822545197E-04      50    1    1         0.2797785699E-05      0.1379882866E-04
          0                 5           1            50    1     1      -0.2662178744E-05      50    1    1        -0.1966211151E-06      0.9828932933E-06
          0                 6           1            50    1     1       0.1598190357E-06      50    1    1         0.1191098303E-07      0.5983085902E-07

    ------------------------------------------------
       NWT REQUIRED            6 OUTER ITERATIONS 
       AND A TOTAL OF          9 INNER ITERATIONS.
    ------------------------------------------------

 NO OUTPUT CONTROL FOR STRESS PERIOD   19   TIME STEP   14
 
 WELLS WITH REDUCED PUMPING FOR STRESS PERIOD    19 TIME STEP    14
   LAY   ROW   COL         APPL.Q          ACT.Q        GW-HEAD       CELL-BOT
     1     3    50  -0.107002E+01  -0.584411E+00   0.594515E+01   0.000000E+00
     1     5    55  -0.107002E+01  -0.503340E+00   0.533085E+01   0.000000E+00
 
 
 SOLVING FOR HEAD 
                                                   Max.-Head-Change                         Max.-Flux-Residual
  Residual-Control   Outer-Iter.   Inner-Iter.     Column Row Layer    Maximum-Head-Change  Column Row Layer    Maximum-Flux-Residual          L2-NORM 
          0                 1           2            50    1     1      -0.5138371402E-01      50    1    1        -0.3315592378E-02      0.1789731237E-01
          0                 2           2            50    1     1       0.5038947393E-02      50    1    1         0.3303082788E-03      0.1710182367E-02
          0                 3           2            50    1     1      -0.4487095699E-03      50    1    1        -0.2974048532E-04      0.1614033203E-03
          0                 4           1            50    1     1       0.3560253485E-04      50    1    1         0.2382111200E-05      0.1337184641E-04
          0                 5           1            50    1     1      -0.2479246444E-05      50    1    1        -0.1673896189E-06      0.9556716095E-06
          0                 6           1            50    1     1       0.1488269236E-06      50    1    1         0.1013929063E-07      0.5829804896E-07

    ------------------------------------------------
       NWT REQUIRED            6 OUTER ITERATIONS 
       AND A TOTAL OF          9 INNER ITERATIONS.
    ------------------------------------------------

 NO OUTPUT CONTROL FOR STRESS PERIOD   19   TIME STEP   15
 
 WELLS WITH REDUCED PUMPING FOR STRESS PERIOD    19 TIME STEP    15
   LAY   ROW   COL         APPL.Q          ACT.Q        GW-HEAD       CELL-BOT
     1     3    50  -0.107002E+01  -0.582150E+00   0.592932E+01   0.000000E+00
     1     5    55  -0.107002E+01  -0.501539E+00   0.531838E+01   0.000000E+00
 
 
 SOLVING FOR HEAD 
                                                   Max.-Head-Change                         Max.-Flux-Residual
  Residual-Control   Outer-Iter.   Inner-Iter.     Column Row Layer    Maximum-Head-Change  Column Row Layer    Maximum-Flux-Residual          L2-NORM 
          0                 1           2            50    1     1      -0.4787560409E-01      50    1    1        -0.2813202030E-02      0.1695660766E-01
          0                 2           2            50    1     1       0.4687606861E-02      50    1    1         0.2803135810E-03      0.1670423659E-02
          0                 3           2            50    1     1      -0.4171069690E-03      50    1    1        -0.2523856390E-04      0.1591894055E-03
          0                 4           1            50    1     1       0.3308771499E-04      50    1    1         0.2021526285E-05      0.1324269060E-04
          0                 5           1            50    1     1      -0.2303838881E-05      50    1    1        -0.1420359362E-06      0.9488428841E-06
          0                 6           1            50    1     1       0.1382885379E-06      50    1    1         0.8602853874E-08      0.5801745513E-07

    ------------------------------------------------
       NWT REQUIRED            6 OUTER ITERATIONS 
       AND A TOTAL OF          9 INNER ITERATIONS.
    ------------------------------------------------

 NO OUTPUT CONTROL FOR STRESS PERIOD   19   TIME STEP   16
 
 WELLS WITH REDUCED PUMPING FOR STRESS PERIOD    19 TIME STEP    16
   LAY   ROW   COL         APPL.Q          ACT.Q        GW-HEAD       CELL-BOT
     1     3    50  -0.107002E+01  -0.579998E+00   0.591425E+01   0.000000E+00
     1     5    55  -0.107002E+01  -0.499815E+00   0.530644E+01   0.000000E+00
 
 
 SOLVING FOR HEAD 
                                                   Max.-Head-Change                         Max.-Flux-Residual
  Residual-Control   Outer-Iter.   Inner-Iter.     Column Row Layer    Maximum-Head-Change  Column Row Layer    Maximum-Flux-Residual          L2-NORM 
          0                 1           2            50    1     1      -0.4460322127E-01      50    1    1        -0.2383203194E-02      0.1587876480E-01
          0                 2           2            50    1     1       0.4358782277E-02      50    1    1         0.2375226272E-03      0.1583486364E-02
          0                 3           2            50    1     1      -0.3874636158E-03      50    1    1        -0.2138532680E-04      0.1530356775E-03
          0                 4           1            50    1     1       0.3072609028E-04      50    1    1         0.1712898336E-05      0.1280028327E-04
          0                 5           1            50    1     1      -0.2139102170E-05      50    1    1        -0.1203405729E-06      0.9177618618E-06
          0                 6           1            50    1     1       0.1283957771E-06      50    1    1         0.7288588677E-08      0.5601571376E-07

    ------------------------------------------------
       NWT REQUIRED            6 OUTER ITERATIONS 
       AND A TOTAL OF          9 INNER ITERATIONS.
    ------------------------------------------------

 NO OUTPUT CONTROL FOR STRESS PERIOD   19   TIME STEP   17
 
 WELLS WITH REDUCED PUMPING FOR STRESS PERIOD    19 TIME STEP    17
   LAY   ROW   COL         APPL.Q          ACT.Q        GW-HEAD       CELL-BOT
     1     3    50  -0.106999E+01  -0.577927E+00   0.589989E+01   0.000000E+00
     1     5    55  -0.106999E+01  -0.498142E+00   0.529496E+01   0.000000E+00
 
 
 SOLVING FOR HEAD 
                                                   Max.-Head-Change                         Max.-Flux-Residual
  Residual-Control   Outer-Iter.   Inner-Iter.     Column Row Layer    Maximum-Head-Change  Column Row Layer    Maximum-Flux-Residual          L2-NORM 
          0                 1           2            51    1     1      -0.4435542515E-01       1    4    1         0.2897129706E-02      0.2086700436E-01
          0                 2           2            51    1     1       0.4298602893E-02     100    4    1        -0.2487901698E-03      0.1602119630E-02
          0                 3           2            51    1     1      -0.3817040493E-03     100    4    1         0.2189437618E-04      0.1470383407E-03
          0                 4           1            51    1     1       0.3027695841E-04     100    4    1        -0.1711821255E-05      0.1241625842E-04
          0                 5           1            51    1     1      -0.2108246285E-05     100    4    1         0.1171507051E-06      0.8985439416E-06
          0                 6           1            51    1     1       0.1265575440E-06     100    4    1        -0.6884590675E-08      0.5511000930E-07

    ------------------------------------------------
       NWT REQUIRED            6 OUTER ITERATIONS 
       AND A TOTAL OF          9 INNER ITERATIONS.
    ------------------------------------------------

 NO OUTPUT CONTROL FOR STRESS PERIOD   19   TIME STEP   18
 
 WELLS WITH REDUCED PUMPING FOR STRESS PERIOD    19 TIME STEP    18
   LAY   ROW   COL         APPL.Q          ACT.Q        GW-HEAD       CELL-BOT
     1     3    50  -0.106998E+01  -0.575937E+00   0.588598E+01   0.000000E+00
     1     5    55  -0.106998E+01  -0.496520E+00   0.528373E+01   0.000000E+00
 
 
 SOLVING FOR HEAD 
                                                   Max.-Head-Change                         Max.-Flux-Residual
  Residual-Control   Outer-Iter.   Inner-Iter.     Column Row Layer    Maximum-Head-Change  Column Row Layer    Maximum-Flux-Residual          L2-NORM 
          0                 1           2            51    1     1      -0.4417307267E-01      80    4    1         0.3391582046E-02      0.1809691245E-01
          0                 2           2            51    1     1       0.4265450850E-02      80    4    1        -0.2268564031E-03      0.1711795851E-02
          0                 3           2            51    1     1      -0.3781291401E-03      51    1    1        -0.1640407926E-04      0.1688485860E-03
          0                 4           1            51    1     1       0.2997871091E-04       1    4    1         0.1499216836E-05      0.1444229035E-04
          0                 5           1            51    1     1      -0.2086979286E-05       1    4    1        -0.1151608622E-06      0.1048258443E-05
          0                 6           1            51    1     1       0.1252680811E-06       1    4    1         0.7187043849E-08      0.6445409274E-07

    ------------------------------------------------
       NWT REQUIRED            6 OUTER ITERATIONS 
       AND A TOTAL OF          9 INNER ITERATIONS.
    ------------------------------------------------

 NO OUTPUT CONTROL FOR STRESS PERIOD   19   TIME STEP   19
 
 WELLS WITH REDUCED PUMPING FOR STRESS PERIOD    19 TIME STEP    19
   LAY   ROW   COL         APPL.Q          ACT.Q        GW-HEAD       CELL-BOT
     1     3    50  -0.106998E+01  -0.574007E+00   0.587250E+01   0.000000E+00
     1     5    55  -0.106998E+01  -0.494929E+00   0.527272E+01   0.000000E+00
 
 
 SOLVING FOR HEAD 
                                                   Max.-Head-Change                         Max.-Flux-Residual
  Residual-Control   Outer-Iter.   Inner-Iter.     Column Row Layer    Maximum-Head-Change  Column Row Layer    Maximum-Flux-Residual          L2-NORM 
          0                 1           2            51    1     1      -0.4396387979E-01      27    4    1         0.3777186097E-02      0.1698107528E-01
          0                 2           2            51    1     1       0.4228107346E-02      77    4    1        -0.2586184028E-03      0.1684404483E-02
          0                 3           2            51    1     1      -0.3740480822E-03      77    4    1         0.1823774818E-04      0.1682681627E-03
          0                 4           1            51    1     1       0.2963459431E-04       1    4    1         0.1555840264E-05      0.1445774106E-04
          0                 5           1            51    1     1      -0.2062539693E-05       1    4    1        -0.1196098509E-06      0.1051295609E-05
          0                 6           1            51    1     1       0.1238026989E-06       1    4    1         0.7476572250E-08      0.6467831307E-07

    ------------------------------------------------
       NWT REQUIRED            6 OUTER ITERATIONS 
       AND A TOTAL OF          9 INNER ITERATIONS.
    ------------------------------------------------

 NO OUTPUT CONTROL FOR STRESS PERIOD   19   TIME STEP   20
 
 WELLS WITH REDUCED PUMPING FOR STRESS PERIOD    19 TIME STEP    20
   LAY   ROW   COL         APPL.Q          ACT.Q        GW-HEAD       CELL-BOT
     1     3    50  -0.107001E+01  -0.572134E+00   0.585927E+01   0.000000E+00
     1     5    55  -0.107001E+01  -0.493364E+00   0.526175E+01   0.000000E+00
 
 
 SOLVING FOR HEAD 
                                                   Max.-Head-Change                         Max.-Flux-Residual
  Residual-Control   Outer-Iter.   Inner-Iter.     Column Row Layer    Maximum-Head-Change  Column Row Layer    Maximum-Flux-Residual          L2-NORM 
          0                 1           2            51    1     1      -0.4379908586E-01      30    4    1         0.3555164368E-02      0.1620073067E-01
          0                 2           2            51    1     1       0.4193606590E-02      75    4    1        -0.2574537493E-03      0.1622491325E-02
          0                 3           2            51    1     1      -0.3700782064E-03      75    4    1         0.1832144459E-04      0.1634008141E-03
          0                 4           1            51    1     1       0.2929219617E-04       1    4    1         0.1583699078E-05      0.1412699803E-04
          0                 5           1            51    1     1      -0.2037994143E-05       1    4    1        -0.1223883359E-06      0.1030604112E-05
          0                 6           1            51    1     1       0.1223364616E-06       2    4    1         0.7689124004E-08      0.6347066616E-07

    ------------------------------------------------
       NWT REQUIRED            6 OUTER ITERATIONS 
       AND A TOTAL OF          9 INNER ITERATIONS.
    ------------------------------------------------

 NO OUTPUT CONTROL FOR STRESS PERIOD   19   TIME STEP   21
 
 WELLS WITH REDUCED PUMPING FOR STRESS PERIOD    19 TIME STEP    21
   LAY   ROW   COL         APPL.Q          ACT.Q        GW-HEAD       CELL-BOT
     1     3    50  -0.107000E+01  -0.570290E+00   0.584642E+01   0.000000E+00
     1     5    55  -0.107000E+01  -0.491807E+00   0.525100E+01   0.000000E+00
 
 
 SOLVING FOR HEAD 
                                                   Max.-Head-Change                         Max.-Flux-Residual
  Residual-Control   Outer-Iter.   Inner-Iter.     Column Row Layer    Maximum-Head-Change  Column Row Layer    Maximum-Flux-Residual          L2-NORM 
          0                 1           2            51    1     1      -0.4372976594E-01      32    4    1         0.3747351871E-02      0.1550467820E-01
          0                 2           2            51    1     1       0.4167142918E-02      32    4    1        -0.2364923939E-03      0.1559206424E-02
          0                 3           2            51    1     1      -0.3666757238E-03      72    4    1         0.1828741582E-04      0.1583362024E-03
          0                 4           1            51    1     1       0.2898656103E-04       1    4    1         0.1610549340E-05      0.1379073940E-04
          0                 5           1            51    1     1      -0.2015789019E-05       2    4    1        -0.1253659576E-06      0.1010153139E-05
          0                 6           1            51    1     1       0.1210227248E-06       2    4    1         0.7910927025E-08      0.6232767531E-07

    ------------------------------------------------
       NWT REQUIRED            6 OUTER ITERATIONS 
       AND A TOTAL OF          9 INNER ITERATIONS.
    ------------------------------------------------

 NO OUTPUT CONTROL FOR STRESS PERIOD   19   TIME STEP   22
 
 WELLS WITH REDUCED PUMPING FOR STRESS PERIOD    19 TIME STEP    22
   LAY   ROW   COL         APPL.Q          ACT.Q        GW-HEAD       CELL-BOT
     1     3    50  -0.106999E+01  -0.568483E+00   0.583381E+01   0.000000E+00
     1     5    55  -0.106999E+01  -0.490256E+00   0.524025E+01   0.000000E+00
 
 
 SOLVING FOR HEAD 
                                                   Max.-Head-Change                         Max.-Flux-Residual
  Residual-Control   Outer-Iter.   Inner-Iter.     Column Row Layer    Maximum-Head-Change  Column Row Layer    Maximum-Flux-Residual          L2-NORM 
          0                 1           2            51    1     1      -0.4375532062E-01      34    4    1         0.3307110927E-02      0.1479841062E-01
          0                 2           2            51    1     1       0.4149200803E-02      70    4    1        -0.2421801037E-03      0.1498683755E-02
          0                 3           2            51    1     1      -0.3639661897E-03      70    4    1         0.1880562091E-04      0.1535993716E-03
          0                 4           1            51    1     1       0.2873125362E-04       1    4    1         0.1635577235E-05      0.1347854397E-04
          0                 5           1            51    1     1      -0.1996907885E-05       2    4    1        -0.1282006785E-06      0.9911629369E-06
          0                 6           1            51    1     1       0.1199278113E-06       2    4    1         0.8122537309E-08      0.6125778766E-07

    ------------------------------------------------
       NWT REQUIRED            6 OUTER ITERATIONS 
       AND A TOTAL OF          9 INNER ITERATIONS.
    ------------------------------------------------

 NO OUTPUT CONTROL FOR STRESS PERIOD   19   TIME STEP   23
 
 WELLS WITH REDUCED PUMPING FOR STRESS PERIOD    19 TIME STEP    23
   LAY   ROW   COL         APPL.Q          ACT.Q        GW-HEAD       CELL-BOT
     1     3    50  -0.106999E+01  -0.566733E+00   0.582161E+01   0.000000E+00
     1     5    55  -0.106999E+01  -0.488709E+00   0.522954E+01   0.000000E+00
 
 
 SOLVING FOR HEAD 
                                                   Max.-Head-Change                         Max.-Flux-Residual
  Residual-Control   Outer-Iter.   Inner-Iter.     Column Row Layer    Maximum-Head-Change  Column Row Layer    Maximum-Flux-Residual          L2-NORM 
          0                 1           3            52    1     1      -0.4524898543E-01      37    4    1         0.3179124288E-02      0.1416485636E-01
          0                 2           2            52    1     1       0.4233890638E-02      68    4    1        -0.2402798065E-03      0.1434667348E-02
          0                 3           2            52    1     1      -0.3689673823E-03      68    4    1         0.1853867777E-04      0.1485533109E-03
          0                 4           1            52    1     1       0.2905490991E-04       1    4    1         0.1658387095E-05      0.1316313996E-04
          0                 5           1            52    1     1      -0.2014183825E-05       2    4    1        -0.1308389486E-06      0.9739086166E-06
          0                 6           1            52    1     1       0.1210833703E-06       2    4    1         0.8323809197E-08      0.6046932188E-07

    ------------------------------------------------
       NWT REQUIRED            6 OUTER ITERATIONS 
       AND A TOTAL OF         10 INNER ITERATIONS.
    ------------------------------------------------

 NO OUTPUT CONTROL FOR STRESS PERIOD   19   TIME STEP   24
 
 WELLS WITH REDUCED PUMPING FOR STRESS PERIOD    19 TIME STEP    24
   LAY   ROW   COL         APPL.Q          ACT.Q        GW-HEAD       CELL-BOT
     1     3    50  -0.107000E+01  -0.565154E+00   0.581054E+01   0.000000E+00
     1     5    55  -0.107000E+01  -0.487282E+00   0.521961E+01   0.000000E+00
 
 
 SOLVING FOR HEAD 
                                                   Max.-Head-Change                         Max.-Flux-Residual
  Residual-Control   Outer-Iter.   Inner-Iter.     Column Row Layer    Maximum-Head-Change  Column Row Layer    Maximum-Flux-Residual          L2-NORM 
          0                 1           3            52    1     1      -0.4433981395E-01      39    4    1         0.3258720425E-02      0.1376267948E-01
          0                 2           2            52    1     1       0.4300612016E-02      66    4    1        -0.2260059438E-03      0.1392902950E-02
          0                 3           2            52    1     1      -0.3804600705E-03      66    4    1         0.1677002212E-04      0.1447378726E-03
          0                 4           1            52    1     1       0.3010621112E-04       1    4    1         0.1678857313E-05      0.1292378704E-04
          0                 5           1            52    1     1      -0.2088835513E-05       2    4    1        -0.1332484558E-06      0.9611267726E-06
          0                 6           1            52    1     1       0.1257907403E-06       2    4    1         0.8504848381E-08      0.5987752229E-07

    ------------------------------------------------
       NWT REQUIRED            6 OUTER ITERATIONS 
       AND A TOTAL OF         10 INNER ITERATIONS.
    ------------------------------------------------

 NO OUTPUT CONTROL FOR STRESS PERIOD   19   TIME STEP   25
 
 WELLS WITH REDUCED PUMPING FOR STRESS PERIOD    19 TIME STEP    25
   LAY   ROW   COL         APPL.Q          ACT.Q        GW-HEAD       CELL-BOT
     1     3    50  -0.107001E+01  -0.564210E+00   0.580388E+01   0.000000E+00
     1     5    55  -0.107001E+01  -0.486471E+00   0.521393E+01   0.000000E+00
 
 
 SOLVING FOR HEAD 
                                                   Max.-Head-Change                         Max.-Flux-Residual
  Residual-Control   Outer-Iter.   Inner-Iter.     Column Row Layer    Maximum-Head-Change  Column Row Layer    Maximum-Flux-Residual          L2-NORM 
          0                 1           3            52    1     1      -0.4274476319E-01      41    4    1         0.3136437330E-02      0.1301067182E-01
          0                 2           2            52    1     1       0.4026438897E-02      65    4    1        -0.2224560419E-03      0.1311487246E-02
          0                 3           2            52    1     1      -0.3513350279E-03       1    4    1        -0.1620366879E-04      0.1391793991E-03
          0                 4           1            52    1     1       0.2764679216E-04       1    4    1         0.1696959469E-05      0.1261238810E-04
          0                 5           1            52    1     1      -0.1914041343E-05       2    4    1        -0.1354326500E-06      0.9441316627E-06
          0                 6           1            52    1     1       0.1154872858E-06       2    4    1         0.8669729823E-08      0.5899630405E-07

    ------------------------------------------------
       NWT REQUIRED            6 OUTER ITERATIONS 
       AND A TOTAL OF         10 INNER ITERATIONS.
    ------------------------------------------------

 NO OUTPUT CONTROL FOR STRESS PERIOD   19   TIME STEP   26
 
 WELLS WITH REDUCED PUMPING FOR STRESS PERIOD    19 TIME STEP    26
   LAY   ROW   COL         APPL.Q          ACT.Q        GW-HEAD       CELL-BOT
     1     3    50  -0.107001E+01  -0.563250E+00   0.579719E+01   0.000000E+00
     1     5    55  -0.107001E+01  -0.485575E+00   0.520773E+01   0.000000E+00
 
 
 SOLVING FOR HEAD 
                                                   Max.-Head-Change                         Max.-Flux-Residual
  Residual-Control   Outer-Iter.   Inner-Iter.     Column Row Layer    Maximum-Head-Change  Column Row Layer    Maximum-Flux-Residual          L2-NORM 
          0                 1           3            42    4     1       0.4436591045E-01      63    4    1         0.3424403202E-02      0.1280519716E-01
          0                 2           2            52    1     1       0.3891218019E-02      63    4    1        -0.2482810617E-03      0.1286027766E-02
          0                 3           2            52    1     1      -0.3363390400E-03       1    4    1        -0.1625441429E-04      0.1377973883E-03
          0                 4           1            52    1     1       0.2634456216E-04       1    4    1         0.1712700161E-05      0.1259528014E-04
          0                 5           1            52    1     1      -0.1821707083E-05       2    4    1        -0.1373856620E-06      0.9469900659E-06
          0                 6           1            52    1     1       0.1102596575E-06       2    4    1         0.8816446240E-08      0.5937390763E-07

    ------------------------------------------------
       NWT REQUIRED            6 OUTER ITERATIONS 
       AND A TOTAL OF         10 INNER ITERATIONS.
    ------------------------------------------------

 NO OUTPUT CONTROL FOR STRESS PERIOD   19   TIME STEP   27
 
 WELLS WITH REDUCED PUMPING FOR STRESS PERIOD    19 TIME STEP    27
   LAY   ROW   COL         APPL.Q          ACT.Q        GW-HEAD       CELL-BOT
     1     3    50  -0.107000E+01  -0.562113E+00   0.578927E+01   0.000000E+00
     1     5    55  -0.107000E+01  -0.484466E+00   0.520004E+01   0.000000E+00
 
 
 SOLVING FOR HEAD 
                                                   Max.-Head-Change                         Max.-Flux-Residual
  Residual-Control   Outer-Iter.   Inner-Iter.     Column Row Layer    Maximum-Head-Change  Column Row Layer    Maximum-Flux-Residual          L2-NORM 
          0                 1           3            44    4     1       0.4913108555E-01      61    4    1         0.3767801796E-02      0.1278409005E-01
          0                 2           2            52    1     1       0.3844267838E-02      61    4    1        -0.2731144062E-03      0.1279659143E-02
          0                 3           2            52    1     1      -0.3298499954E-03      61    4    1         0.1771733105E-04      0.1375891557E-03
          0                 4           1            52    1     1       0.2572304239E-04       1    4    1         0.1726104596E-05      0.1264413414E-04
          0                 5           1            52    1     1      -0.1776643543E-05       2    4    1        -0.1391047526E-06      0.9533102167E-06
          0                 6           1            52    1     1       0.1079181607E-06       2    4    1         0.8945178820E-08      0.5996015579E-07

    ------------------------------------------------
       NWT REQUIRED            6 OUTER ITERATIONS 
       AND A TOTAL OF         10 INNER ITERATIONS.
    ------------------------------------------------

 NO OUTPUT CONTROL FOR STRESS PERIOD   19   TIME STEP   28
 
 WELLS WITH REDUCED PUMPING FOR STRESS PERIOD    19 TIME STEP    28
   LAY   ROW   COL         APPL.Q          ACT.Q        GW-HEAD       CELL-BOT
     1     3    50  -0.107000E+01  -0.560948E+00   0.578112E+01   0.000000E+00
     1     5    55  -0.107000E+01  -0.483281E+00   0.519181E+01   0.000000E+00
 
 
 SOLVING FOR HEAD 
                                                   Max.-Head-Change                         Max.-Flux-Residual
  Residual-Control   Outer-Iter.   Inner-Iter.     Column Row Layer    Maximum-Head-Change  Column Row Layer    Maximum-Flux-Residual          L2-NORM 
          0                 1           3            46    4     1       0.4838547447E-01      46    4    1         0.3574140376E-02      0.1244405363E-01
          0                 2           2            52    1     1       0.3831221525E-02      46    4    1        -0.2317231023E-03      0.1258236873E-02
          0                 3           2            52    1     1      -0.3267161660E-03       1    4    1        -0.1630945847E-04      0.1367071077E-03
          0                 4           1            52    1     1       0.2536791664E-04       1    4    1         0.1737211171E-05      0.1264889303E-04
          0                 5           1            52    1     1      -0.1750510134E-05       2    4    1        -0.1405860495E-06      0.9558415416E-06
          0                 6           1            52    1     1       0.1068025168E-06       2    4    1         0.9053945149E-08      0.6025262194E-07

    ------------------------------------------------
       NWT REQUIRED            6 OUTER ITERATIONS 
       AND A TOTAL OF         10 INNER ITERATIONS.
    ------------------------------------------------

 NO OUTPUT CONTROL FOR STRESS PERIOD   19   TIME STEP   29
 
 WELLS WITH REDUCED PUMPING FOR STRESS PERIOD    19 TIME STEP    29
   LAY   ROW   COL         APPL.Q          ACT.Q        GW-HEAD       CELL-BOT
     1     3    50  -0.106999E+01  -0.559864E+00   0.577359E+01   0.000000E+00
     1     5    55  -0.106999E+01  -0.482108E+00   0.518370E+01   0.000000E+00
 
 
 SOLVING FOR HEAD 
                                                   Max.-Head-Change                         Max.-Flux-Residual
  Residual-Control   Outer-Iter.   Inner-Iter.     Column Row Layer    Maximum-Head-Change  Column Row Layer    Maximum-Flux-Residual          L2-NORM 
          0                 1           3             1    1     1       0.5244740293E-01      58    4    1         0.3237123844E-02      0.1207989027E-01
          0                 2           2             1    1     1      -0.3948128800E-02      58    4    1        -0.2187421714E-03      0.1232084643E-02
          0                 3           2            53    1     1      -0.3247789095E-03       1    4    1        -0.1631444388E-04      0.1354181546E-03
          0                 4           1            53    1     1       0.2511972606E-04       1    4    1         0.1746070641E-05      0.1262587848E-04
          0                 5           1            53    1     1      -0.1735210339E-05       2    4    1        -0.1418265505E-06      0.9566740182E-06
          0                 6           1            53    1     1       0.1056566658E-06       2    4    1         0.9141665203E-08      0.6052442528E-07

    ------------------------------------------------
       NWT REQUIRED            6 OUTER ITERATIONS 
       AND A TOTAL OF         10 INNER ITERATIONS.
    ------------------------------------------------

 NO OUTPUT CONTROL FOR STRESS PERIOD   19   TIME STEP   30
 
 WELLS WITH REDUCED PUMPING FOR STRESS PERIOD    19 TIME STEP    30
   LAY   ROW   COL         APPL.Q          ACT.Q        GW-HEAD       CELL-BOT
     1     3    50  -0.106999E+01  -0.559099E+00   0.576824E+01   0.000000E+00
     1     5    55  -0.106999E+01  -0.481155E+00   0.517707E+01   0.000000E+00
 



 STREAM LISTING     PERIOD     19   STEP       30

 LAYER ROW COL. STREAM  RCH.   FLOW INTO    STREAM     FLOW OUT OF   OVRLND.    DIRECT     STREAM      STREAM      STREAM     STREAM  STREAMBED   FLOW TO   CHNG. UNSAT. 
                SEG.NO.  NO.   STRM. RCH.    LOSS       STRM. RCH.   RUNOFF     PRECIP       ET         HEAD        DEPTH      WIDTH  CONDCTNC.   WAT. TAB.

   1    4    1     1     1    6.5560E+01  1.4322E-02   6.5546E+01  0.000E+00  0.000E+00  0.000E+00  1.45256E+02  5.406E+00  1.242E+01  2.425E-03  1.440E-02 -7.434E-05
   1    4    2     1     2    6.5546E+01  1.4320E-02   6.5531E+01  0.000E+00  0.000E+00  0.000E+00  1.44956E+02  5.406E+00  1.242E+01  2.425E-03  1.440E-02 -7.537E-05
   1    4    3     1     3    6.5531E+01  1.4318E-02   6.5517E+01  0.000E+00  0.000E+00  0.000E+00  1.44656E+02  5.406E+00  1.241E+01  2.424E-03  1.439E-02 -7.616E-05
   1    4    4     1     4    6.5517E+01  1.4315E-02   6.5503E+01  0.000E+00  0.000E+00  0.000E+00  1.44355E+02  5.405E+00  1.241E+01  2.424E-03  1.439E-02 -7.673E-05
   1    4    5     1     5    6.5503E+01  1.4313E-02   6.5488E+01  0.000E+00  0.000E+00  0.000E+00  1.44055E+02  5.405E+00  1.241E+01  2.424E-03  1.439E-02 -7.707E-05
   1    4    6     1     6    6.5488E+01  1.4311E-02   6.5474E+01  0.000E+00  0.000E+00  0.000E+00  1.43754E+02  5.404E+00  1.241E+01  2.424E-03  1.439E-02 -7.721E-05
   1    4    7     1     7    6.5474E+01  1.4308E-02   6.5460E+01  0.000E+00  0.000E+00  0.000E+00  1.43454E+02  5.404E+00  1.241E+01  2.424E-03  1.439E-02 -7.716E-05
   1    4    8     1     8    6.5460E+01  1.4306E-02   6.5445E+01  0.000E+00  0.000E+00  0.000E+00  1.43153E+02  5.403E+00  1.241E+01  2.423E-03  1.438E-02 -7.693E-05
   1    4    9     1     9    6.5445E+01  1.4304E-02   6.5431E+01  0.000E+00  0.000E+00  0.000E+00  1.42853E+02  5.403E+00  1.241E+01  2.423E-03  1.438E-02 -7.655E-05
   1    4   10     1    10    6.5431E+01  1.4301E-02   6.5417E+01  0.000E+00  0.000E+00  0.000E+00  1.42552E+02  5.402E+00  1.241E+01  2.423E-03  1.438E-02 -7.602E-05
   1    4   11     1    11    6.5417E+01  1.4299E-02   6.5403E+01  0.000E+00  0.000E+00  0.000E+00  1.42252E+02  5.402E+00  1.241E+01  2.423E-03  1.437E-02 -7.536E-05
   1    4   12     1    12    6.5403E+01  1.4297E-02   6.5388E+01  0.000E+00  0.000E+00  0.000E+00  1.41951E+02  5.401E+00  1.240E+01  2.423E-03  1.437E-02 -7.459E-05
   1    4   13     1    13    6.5388E+01  1.4294E-02   6.5374E+01  0.000E+00  0.000E+00  0.000E+00  1.41651E+02  5.401E+00  1.240E+01  2.422E-03  1.437E-02 -7.373E-05
   1    4   14     1    14    6.5374E+01  1.4292E-02   6.5360E+01  0.000E+00  0.000E+00  0.000E+00  1.41351E+02  5.401E+00  1.240E+01  2.422E-03  1.436E-02 -7.278E-05
   1    4   15     1    15    6.5360E+01  1.4290E-02   6.5345E+01  0.000E+00  0.000E+00  0.000E+00  1.41050E+02  5.400E+00  1.240E+01  2.422E-03  1.436E-02 -7.178E-05
   1    4   16     1    16    6.5345E+01  1.4287E-02   6.5331E+01  0.000E+00  0.000E+00  0.000E+00  1.40750E+02  5.400E+00  1.240E+01  2.422E-03  1.436E-02 -7.072E-05
   1    4   17     1    17    6.5331E+01  1.4285E-02   6.5317E+01  0.000E+00  0.000E+00  0.000E+00  1.40449E+02  5.399E+00  1.240E+01  2.422E-03  1.435E-02 -6.965E-05
   1    4   18     1    18    6.5317E+01  1.4283E-02   6.5303E+01  0.000E+00  0.000E+00  0.000E+00  1.40149E+02  5.399E+00  1.240E+01  2.421E-03  1.435E-02 -6.857E-05
   1    4   19     1    19    6.5303E+01  1.4280E-02   6.5288E+01  0.000E+00  0.000E+00  0.000E+00  1.39848E+02  5.398E+00  1.240E+01  2.421E-03  1.435E-02 -6.750E-05
   1    4   20     1    20    6.5288E+01  1.4278E-02   6.5274E+01  0.000E+00  0.000E+00  0.000E+00  1.39548E+02  5.398E+00  1.239E+01  2.421E-03  1.434E-02 -6.648E-05
   1    4   21     1    21    6.5274E+01  1.4276E-02   6.5260E+01  0.000E+00  0.000E+00  0.000E+00  1.39247E+02  5.397E+00  1.239E+01  2.421E-03  1.434E-02 -6.552E-05
   1    4   22     1    22    6.5260E+01  1.4274E-02   6.5245E+01  0.000E+00  0.000E+00  0.000E+00  1.38947E+02  5.397E+00  1.239E+01  2.420E-03  1.434E-02 -6.466E-05
   1    4   23     1    23    6.5245E+01  1.4271E-02   6.5231E+01  0.000E+00  0.000E+00  0.000E+00  1.38647E+02  5.397E+00  1.239E+01  2.420E-03  1.434E-02 -6.392E-05
   1    4   24     1    24    6.5231E+01  1.4269E-02   6.5217E+01  0.000E+00  0.000E+00  0.000E+00  1.38346E+02  5.396E+00  1.239E+01  2.420E-03  1.433E-02 -6.332E-05
   1    4   25     1    25    6.5217E+01  1.4267E-02   6.5203E+01  0.000E+00  0.000E+00  0.000E+00  1.38046E+02  5.396E+00  1.239E+01  2.420E-03  1.433E-02 -6.290E-05
   1    4   26     1    26    6.5203E+01  1.4264E-02   6.5188E+01  0.000E+00  0.000E+00  0.000E+00  1.37745E+02  5.395E+00  1.239E+01  2.420E-03  1.433E-02 -6.269E-05
   1    4   27     1    27    6.5188E+01  1.4262E-02   6.5174E+01  0.000E+00  0.000E+00  0.000E+00  1.37445E+02  5.395E+00  1.239E+01  2.419E-03  1.432E-02 -6.273E-05
   1    4   28     1    28    6.5174E+01  1.4260E-02   6.5160E+01  0.000E+00  0.000E+00  0.000E+00  1.37144E+02  5.394E+00  1.238E+01  2.419E-03  1.432E-02 -6.301E-05
   1    4   29     1    29    6.5160E+01  1.4257E-02   6.5146E+01  0.000E+00  0.000E+00  0.000E+00  1.36844E+02  5.394E+00  1.238E+01  2.419E-03  1.432E-02 -6.360E-05
   1    4   30     1    30    6.5146E+01  1.4255E-02   6.5131E+01  0.000E+00  0.000E+00  0.000E+00  1.36543E+02  5.393E+00  1.238E+01  2.419E-03  1.432E-02 -6.450E-05
   1    4   31     1    31    6.5131E+01  1.4253E-02   6.5117E+01  0.000E+00  0.000E+00  0.000E+00  1.36243E+02  5.393E+00  1.238E+01  2.419E-03  1.432E-02 -6.572E-05
   1    4   32     1    32    6.5117E+01  1.4250E-02   6.5103E+01  0.000E+00  0.000E+00  0.000E+00  1.35942E+02  5.392E+00  1.238E+01  2.418E-03  1.432E-02 -6.729E-05
   1    4   33     1    33    6.5103E+01  1.4248E-02   6.5089E+01  0.000E+00  0.000E+00  0.000E+00  1.35642E+02  5.392E+00  1.238E+01  2.418E-03  1.432E-02 -6.435E-05
   1    4   34     1    34    6.5089E+01  1.4246E-02   6.5074E+01  0.000E+00  0.000E+00  0.000E+00  1.35342E+02  5.392E+00  1.238E+01  2.418E-03  1.432E-02 -6.657E-05
   1    4   35     1    35    6.5074E+01  1.4243E-02   6.5060E+01  0.000E+00  0.000E+00  0.000E+00  1.35041E+02  5.391E+00  1.238E+01  2.418E-03  1.432E-02 -6.907E-05
   1    4   36     1    36    6.5060E+01  1.4241E-02   6.5046E+01  0.000E+00  0.000E+00  0.000E+00  1.34741E+02  5.391E+00  1.238E+01  2.418E-03  1.432E-02 -7.658E-05
   1    4   37     1    37    6.5046E+01  1.4239E-02   6.5032E+01  0.000E+00  0.000E+00  0.000E+00  1.34440E+02  5.390E+00  1.237E+01  2.417E-03  1.432E-02 -7.816E-05
   1    4   38     1    38    6.5032E+01  1.4236E-02   6.5017E+01  0.000E+00  0.000E+00  0.000E+00  1.34140E+02  5.390E+00  1.237E+01  2.417E-03  1.432E-02 -7.977E-05
   1    4   39     1    39    6.5017E+01  1.4234E-02   6.5003E+01  0.000E+00  0.000E+00  0.000E+00  1.33839E+02  5.389E+00  1.237E+01  2.417E-03  1.432E-02 -8.122E-05
   1    4   40     1    40    6.5003E+01  1.4232E-02   6.4989E+01  0.000E+00  0.000E+00  0.000E+00  1.33539E+02  5.389E+00  1.237E+01  2.417E-03  1.431E-02 -8.235E-05
   1    4   41     1    41    6.4989E+01  1.4229E-02   6.4975E+01  0.000E+00  0.000E+00  0.000E+00  1.33238E+02  5.388E+00  1.237E+01  2.416E-03  1.431E-02 -8.296E-05
   1    4   42     1    42    6.4975E+01  1.4227E-02   6.4960E+01  0.000E+00  0.000E+00  0.000E+00  1.32938E+02  5.388E+00  1.237E+01  2.416E-03  1.431E-02 -8.289E-05
   1    4   43     1    43    6.4960E+01  1.4225E-02   6.4946E+01  0.000E+00  0.000E+00  0.000E+00  1.32638E+02  5.388E+00  1.237E+01  2.416E-03  1.431E-02 -8.209E-05
   1    4   44     1    44    6.4946E+01  1.4222E-02   6.4932E+01  0.000E+00  0.000E+00  0.000E+00  1.32337E+02  5.387E+00  1.237E+01  2.416E-03  1.430E-02 -8.077E-05
   1    4   45     1    45    6.4932E+01  1.4220E-02   6.4918E+01  0.000E+00  0.000E+00  0.000E+00  1.32037E+02  5.387E+00  1.236E+01  2.416E-03  1.430E-02 -8.101E-05
   1    4   46     1    46    6.4918E+01  1.4218E-02   6.4904E+01  0.000E+00  0.000E+00  0.000E+00  1.31736E+02  5.386E+00  1.236E+01  2.415E-03  1.431E-02 -8.756E-05
   1    4   47     1    47    6.4904E+01  1.4215E-02   6.4889E+01  0.000E+00  0.000E+00  0.000E+00  1.31436E+02  5.386E+00  1.236E+01  2.415E-03  1.433E-02 -1.192E-04
   1    4   48     1    48    6.4889E+01  1.4213E-02   6.4875E+01  0.000E+00  0.000E+00  0.000E+00  1.31135E+02  5.385E+00  1.236E+01  2.415E-03  1.255E-02  1.661E-03
   1    4   49     1    49    6.4875E+01  1.4211E-02   6.4861E+01  0.000E+00  0.000E+00  0.000E+00  1.30835E+02  5.385E+00  1.236E+01  2.415E-03  1.025E-02  3.964E-03
   1    4   50     1    50    6.4861E+01  1.4208E-02   6.4847E+01  0.000E+00  0.000E+00  0.000E+00  1.30534E+02  5.384E+00  1.236E+01  2.415E-03  1.023E-02  3.983E-03
   1    4   51     1    51    6.4847E+01  1.4206E-02   6.4833E+01  0.000E+00  0.000E+00  0.000E+00  1.30234E+02  5.384E+00  1.236E+01  2.414E-03  1.019E-02  4.017E-03
   1    4   52     1    52    6.4833E+01  1.4204E-02   6.4818E+01  0.000E+00  0.000E+00  0.000E+00  1.29933E+02  5.383E+00  1.236E+01  2.414E-03  1.017E-02  4.032E-03
   1    4   53     1    53    6.4818E+01  1.4201E-02   6.4804E+01  0.000E+00  0.000E+00  0.000E+00  1.29633E+02  5.383E+00  1.235E+01  2.414E-03  1.017E-02  4.031E-03
   1    4   54     1    54    6.4804E+01  1.4199E-02   6.4790E+01  0.000E+00  0.000E+00  0.000E+00  1.29333E+02  5.383E+00  1.235E+01  2.414E-03  1.018E-02  4.015E-03
   1    4   55     1    55    6.4790E+01  1.4197E-02   6.4776E+01  0.000E+00  0.000E+00  0.000E+00  1.29032E+02  5.382E+00  1.235E+01  2.414E-03  1.022E-02  3.982E-03
   1    4   56     1    56    6.4776E+01  1.4194E-02   6.4762E+01  0.000E+00  0.000E+00  0.000E+00  1.28732E+02  5.382E+00  1.235E+01  2.413E-03  1.023E-02  3.968E-03
   1    4   57     1    57    6.4762E+01  1.4192E-02   6.4747E+01  0.000E+00  0.000E+00  0.000E+00  1.28431E+02  5.381E+00  1.235E+01  2.413E-03  1.225E-02  1.943E-03
   1    4   58     1    58    6.4747E+01  1.4190E-02   6.4733E+01  0.000E+00  0.000E+00  0.000E+00  1.28131E+02  5.381E+00  1.235E+01  2.413E-03  1.429E-02 -1.027E-04
   1    4   59     1    59    6.4733E+01  1.4188E-02   6.4719E+01  0.000E+00  0.000E+00  0.000E+00  1.27830E+02  5.380E+00  1.235E+01  2.413E-03  1.425E-02 -6.274E-05
   1    4   60     1    60    6.4719E+01  1.4185E-02   6.4705E+01  0.000E+00  0.000E+00  0.000E+00  1.27530E+02  5.380E+00  1.235E+01  2.412E-03  1.423E-02 -4.472E-05
   1    4   61     1    61    6.4705E+01  1.4183E-02   6.4691E+01  0.000E+00  0.000E+00  0.000E+00  1.27229E+02  5.379E+00  1.235E+01  2.412E-03  1.422E-02 -3.821E-05
   1    4   62     1    62    6.4691E+01  1.4181E-02   6.4676E+01  0.000E+00  0.000E+00  0.000E+00  1.26929E+02  5.379E+00  1.234E+01  2.412E-03  1.421E-02 -3.441E-05
   1    4   63     1    63    6.4676E+01  1.4178E-02   6.4662E+01  0.000E+00  0.000E+00  0.000E+00  1.26629E+02  5.379E+00  1.234E+01  2.412E-03  1.421E-02 -3.066E-05
   1    4   64     1    64    6.4662E+01  1.4176E-02   6.4648E+01  0.000E+00  0.000E+00  0.000E+00  1.26328E+02  5.378E+00  1.234E+01  2.412E-03  1.420E-02 -2.685E-05
   1    4   65     1    65    6.4648E+01  1.4174E-02   6.4634E+01  0.000E+00  0.000E+00  0.000E+00  1.26028E+02  5.378E+00  1.234E+01  2.411E-03  1.420E-02 -2.300E-05
   1    4   66     1    66    6.4634E+01  1.4171E-02   6.4620E+01  0.000E+00  0.000E+00  0.000E+00  1.25727E+02  5.377E+00  1.234E+01  2.411E-03  1.419E-02 -1.927E-05
   1    4   67     1    67    6.4620E+01  1.4169E-02   6.4606E+01  0.000E+00  0.000E+00  0.000E+00  1.25427E+02  5.377E+00  1.234E+01  2.411E-03  1.418E-02 -1.584E-05
   1    4   68     1    68    6.4606E+01  1.4167E-02   6.4591E+01  0.000E+00  0.000E+00  0.000E+00  1.25126E+02  5.376E+00  1.234E+01  2.411E-03  1.418E-02 -1.287E-05
   1    4   69     1    69    6.4591E+01  1.4164E-02   6.4577E+01  0.000E+00  0.000E+00  0.000E+00  1.24826E+02  5.376E+00  1.234E+01  2.411E-03  1.417E-02 -1.049E-05
   1    4   70     1    70    6.4577E+01  1.4162E-02   6.4563E+01  0.000E+00  0.000E+00  0.000E+00  1.24525E+02  5.375E+00  1.233E+01  2.410E-03  1.417E-02 -8.777E-06
   1    4   71     1    71    6.4563E+01  1.4160E-02   6.4549E+01  0.000E+00  0.000E+00  0.000E+00  1.24225E+02  5.375E+00  1.233E+01  2.410E-03  1.417E-02 -7.795E-06
   1    4   72     1    72    6.4549E+01  1.4157E-02   6.4535E+01  0.000E+00  0.000E+00  0.000E+00  1.23924E+02  5.374E+00  1.233E+01  2.410E-03  1.416E-02 -7.587E-06
   1    4   73     1    73    6.4535E+01  1.4155E-02   6.4521E+01  0.000E+00  0.000E+00  0.000E+00  1.23624E+02  5.374E+00  1.233E+01  2.410E-03  1.416E-02 -8.149E-06
   1    4   74     1    74    6.4521E+01  1.4153E-02   6.4506E+01  0.000E+00  0.000E+00  0.000E+00  1.23324E+02  5.374E+00  1.233E+01  2.410E-03  1.416E-02 -9.489E-06
   1    4   75     1    75    6.4506E+01  1.4150E-02   6.4492E+01  0.000E+00  0.000E+00  0.000E+00  1.23023E+02  5.373E+00  1.233E+01  2.409E-03  1.416E-02 -1.159E-05
   1    4   76     1    76    6.4492E+01  1.4148E-02   6.4478E+01  0.000E+00  0.000E+00  0.000E+00  1.22723E+02  5.373E+00  1.233E+01  2.409E-03  1.416E-02 -1.440E-05
   1    4   77     1    77    6.4478E+01  1.4146E-02   6.4464E+01  0.000E+00  0.000E+00  0.000E+00  1.22422E+02  5.372E+00  1.233E+01  2.409E-03  1.416E-02 -1.790E-05
   1    4   78     1    78    6.4464E+01  1.4143E-02   6.4450E+01  0.000E+00  0.000E+00  0.000E+00  1.22122E+02  5.372E+00  1.232E+01  2.409E-03  1.417E-02 -2.203E-05
   1    4   79     1    79    6.4450E+01  1.4141E-02   6.4436E+01  0.000E+00  0.000E+00  0.000E+00  1.21821E+02  5.371E+00  1.232E+01  2.409E-03  1.417E-02 -2.674E-05
   1    4   80     1    80    6.4436E+01  1.4139E-02   6.4422E+01  0.000E+00  0.000E+00  0.000E+00  1.21521E+02  5.371E+00  1.232E+01  2.408E-03  1.417E-02 -3.195E-05
   1    4   81     1    81    6.4422E+01  1.4137E-02   6.4407E+01  0.000E+00  0.000E+00  0.000E+00  1.21220E+02  5.370E+00  1.232E+01  2.408E-03  1.417E-02 -3.760E-05
   1    4   82     1    82    6.4407E+01  1.4134E-02   6.4393E+01  0.000E+00  0.000E+00  0.000E+00  1.20920E+02  5.370E+00  1.232E+01  2.408E-03  1.418E-02 -4.358E-05
   1    4   83     1    83    6.4393E+01  1.4132E-02   6.4379E+01  0.000E+00  0.000E+00  0.000E+00  1.20620E+02  5.370E+00  1.232E+01  2.408E-03  1.418E-02 -4.980E-05
   1    4   84     1    84    6.4379E+01  1.4130E-02   6.4365E+01  0.000E+00  0.000E+00  0.000E+00  1.20319E+02  5.369E+00  1.232E+01  2.407E-03  1.419E-02 -5.614E-05
   1    4   85     1    85    6.4365E+01  1.4127E-02   6.4351E+01  0.000E+00  0.000E+00  0.000E+00  1.20019E+02  5.369E+00  1.232E+01  2.407E-03  1.419E-02 -6.243E-05
   1    4   86     1    86    6.4351E+01  1.4125E-02   6.4337E+01  0.000E+00  0.000E+00  0.000E+00  1.19718E+02  5.368E+00  1.232E+01  2.407E-03  1.419E-02 -6.852E-05
   1    4   87     1    87    6.4337E+01  1.4123E-02   6.4323E+01  0.000E+00  0.000E+00  0.000E+00  1.19418E+02  5.368E+00  1.231E+01  2.407E-03  1.420E-02 -7.421E-05
   1    4   88     1    88    6.4323E+01  1.4120E-02   6.4309E+01  0.000E+00  0.000E+00  0.000E+00  1.19117E+02  5.367E+00  1.231E+01  2.407E-03  1.420E-02 -7.926E-05
   1    4   89     1    89    6.4309E+01  1.4118E-02   6.4294E+01  0.000E+00  0.000E+00  0.000E+00  1.18817E+02  5.367E+00  1.231E+01  2.406E-03  1.420E-02 -8.342E-05
   1    4   90     1    90    6.4294E+01  1.4116E-02   6.4280E+01  0.000E+00  0.000E+00  0.000E+00  1.18516E+02  5.366E+00  1.231E+01  2.406E-03  1.420E-02 -8.638E-05
   1    4   91     1    91    6.4280E+01  1.4113E-02   6.4266E+01  0.000E+00  0.000E+00  0.000E+00  1.18216E+02  5.366E+00  1.231E+01  2.406E-03  1.420E-02 -8.782E-05
   1    4   92     1    92    6.4266E+01  1.4111E-02   6.4252E+01  0.000E+00  0.000E+00  0.000E+00  1.17915E+02  5.365E+00  1.231E+01  2.406E-03  1.420E-02 -8.742E-05
   1    4   93     1    93    6.4252E+01  1.4109E-02   6.4238E+01  0.000E+00  0.000E+00  0.000E+00  1.17615E+02  5.365E+00  1.231E+01  2.406E-03  1.419E-02 -8.487E-05
   1    4   94     1    94    6.4238E+01  1.4106E-02   6.4224E+01  0.000E+00  0.000E+00  0.000E+00  1.17315E+02  5.365E+00  1.231E+01  2.405E-03  1.419E-02 -7.991E-05
   1    4   95     1    95    6.4224E+01  1.4104E-02   6.4210E+01  0.000E+00  0.000E+00  0.000E+00  1.17014E+02  5.364E+00  1.230E+01  2.405E-03  1.418E-02 -7.236E-05
   1    4   96     1    96    6.4210E+01  1.4102E-02   6.4196E+01  0.000E+00  0.000E+00  0.000E+00  1.16714E+02  5.364E+00  1.230E+01  2.405E-03  1.416E-02 -6.217E-05
   1    4   97     1    97    6.4196E+01  1.4100E-02   6.4182E+01  0.000E+00  0.000E+00  0.000E+00  1.16413E+02  5.363E+00  1.230E+01  2.405E-03  1.415E-02 -4.945E-05
   1    4   98     1    98    6.4182E+01  1.4097E-02   6.4167E+01  0.000E+00  0.000E+00  0.000E+00  1.16113E+02  5.363E+00  1.230E+01  2.405E-03  1.413E-02 -3.451E-05
   1    4   99     1    99    6.4167E+01  1.4095E-02   6.4153E+01  0.000E+00  0.000E+00  0.000E+00  1.15812E+02  5.362E+00  1.230E+01  2.404E-03  1.411E-02 -1.785E-05
   1    4  100     1   100    6.4153E+01  1.4093E-02   6.4139E+01  0.000E+00  0.000E+00  0.000E+00  1.15512E+02  5.362E+00  1.230E+01  2.404E-03  0.000E+00  0.000E+00



1
  VOLUMETRIC BUDGET FOR UNSATURATED ZONE BENEATH STREAMS AT END OF TIME STEP    30 STRESS PERIOD  19
  ------------------------------------------------------------------------------------------------

    CUMULATIVE VOLUMES             L**3    RATES FOR THIS TIME STEP         L**3/T
    ------------------                     ------------------------


          STREAM LOSS =     22972682.0000            STREAM LOSS =            1.4207
    CHANGE IN STORAGE =      3235399.2500      CHANGE IN STORAGE =        3.0330E-02
       RECHARGE TO GW =     19742124.0000         RECHARGE TO GW =            1.3904

             TOTAL IN =     22972682.0000               TOTAL IN =            1.4207

            TOTAL OUT =     22977524.0000              TOTAL OUT =            1.4207

             IN - OUT =        -4842.0000               IN - OUT =       -1.4663E-05

  PERCENT DISCREPANCY =           -0.01      PERCENT DISCREPANCY =            -0.00



1
  VOLUMETRIC BUDGET FOR ENTIRE MODEL AT END OF TIME STEP   30, STRESS PERIOD  19
  ------------------------------------------------------------------------------

     CUMULATIVE VOLUMES      L**3       RATES FOR THIS TIME STEP      L**3/T
     ------------------                 ------------------------

           IN:                                      IN:
           ---                                      ---
             STORAGE     =    80675848.0000               STORAGE     =       1.7122E-02
       CONSTANT HEAD     =           0.0000         CONSTANT HEAD     =           0.0000
               WELLS     =           0.0000                 WELLS     =           0.0000
     HEAD DEP BOUNDS     =           0.0000       HEAD DEP BOUNDS     =           0.0000
      STREAM LEAKAGE     =    19742140.0000        STREAM LEAKAGE     =           1.3904

                TOTAL IN =   100417984.0000                  TOTAL IN =           1.4075

          OUT:                                     OUT:
          ----                                     ----
             STORAGE     =     2844266.2500               STORAGE     =           0.2354
       CONSTANT HEAD     =           0.0000         CONSTANT HEAD     =           0.0000
               WELLS     =    82229592.0000                 WELLS     =           1.0403
     HEAD DEP BOUNDS     =    15344230.0000       HEAD DEP BOUNDS     =           0.1319
      STREAM LEAKAGE     =           0.0000        STREAM LEAKAGE     =           0.0000

               TOTAL OUT =   100418088.0000                 TOTAL OUT =           1.4075

                IN - OUT =        -104.0000                  IN - OUT =           0.0000

     PERCENT DISCREPANCY =          -0.00         PERCENT DISCREPANCY =           0.00






         TIME SUMMARY AT END OF TIME STEP   30 IN STRESS PERIOD   19
                    SECONDS     MINUTES      HOURS       DAYS        YEARS
                    -----------------------------------------------------------
   TIME STEP LENGTH 2.49961E+05  4166.0      69.434      2.8931     7.92080E-03
 STRESS PERIOD TIME 2.59200E+06  43200.      720.00      30.000     8.21355E-02
         TOTAL TIME 4.92480E+07 8.20800E+05  13680.      570.00      1.5606    
1
1
                            STRESS PERIOD NO.   20, LENGTH =   2592000.    
                            -----------------------------------------------

                              NUMBER OF TIME STEPS =    30

                               MULTIPLIER FOR DELT =     1.100

                            INITIAL TIME STEP SIZE =   15757.40    

 REUSING NON-PARAMETER WELLS FROM LAST STRESS PERIOD

      1 WELL 

 REUSING NON-PARAMETER GHB CELLS FROM LAST STRESS PERIOD

      7 GHB CELLS



 CLASSIFICATION & COUNT OF STREAM SEGMENTS BASED ON SOURCE OF INFLOW:

                HEADWATER     DIVERSION     RECEIVES TRIBUTARY FLOW
                ---------     ---------     -----------------------
                     1              0               0



                    INPUT DATA FOR EACH STREAM SEGMENT
 ---------------------------------------------------------------------------------------------

 SEGMENT    SEG.     INFLOW   OVERLAND   STREAM    STREAM   ICALC  OUTFLOW  DIVERSION PRIORITY
    NO.    LENGTH     RATE     RUNOFF      ET       PPT.    METH.  TO SEG.  FROM SEG.    NO.

      1  2.000E+04 3.556E+01 0.000E+00 0.000E+00 0.000E+00    2        0        0        0


         STREAMBED PROPERTIES AND STREAM DIMENSIONS

 SEGMENT     BED HYD. COND.      BED THICKNESS     ELEV.-TOP OF BED     WIDTH OF STREAM     DEPTH OF STREAM    STREAM ROUGHNESS
    No.     UPPER     LOWER     UPPER     LOWER     UPPER     LOWER     UPPER     LOWER     UPPER     LOWER   CHANNEL      BANK

     1  3.500E-07 3.500E-07                                                                                 3.000E-02 4.000E-02

  EIGHT POINT CROSS-SECTION DATA FOR SEGMENTS WITH ICALC = 2
    X VALUES X VALUES START FROM LEFT SIDE LOOKING DOWNSTREAM

     SEGMENT NO.        X1        X2        X3        X4        X5        X6        X7        X8
            1      0.000E+00 2.000E+00 4.000E+00 6.000E+00 8.000E+00 1.000E+01 1.200E+01 1.400E+01

    Z VALUES ARE RELATIVE TO STREAMBED ELEVATION

     SEGMENT NO.          Z1        Z2        Z3        Z4        Z5        Z6        Z7        Z8
            1      6.000E+00 4.500E+00 3.500E+00 0.000E+00 3.000E-01 3.500E+00 4.500E+00 6.000E+00



 
 SOLVING FOR HEAD 
                                                   Max.-Head-Change                         Max.-Flux-Residual
  Residual-Control   Outer-Iter.   Inner-Iter.     Column Row Layer    Maximum-Head-Change  Column Row Layer    Maximum-Flux-Residual          L2-NORM 
          0                 1           2            50    3     1      -0.4665979017E+00      50    3    1        -0.2034348989E+00      0.2686432103E+00
          0                 2           2            50    3     1       0.4548263205E-01      50    3    1         0.2028011311E-01      0.2651635079E-01
          0                 3           2            50    3     1      -0.4084612278E-02      50    3    1        -0.1829705208E-02      0.2390800953E-02
          0                 4           2            50    3     1       0.3234795493E-03      50    3    1         0.1464847998E-03      0.1914877832E-03
          0                 5           1            50    3     1      -0.2255599347E-04      50    3    1        -0.1030006074E-04      0.1346148867E-04
          0                 6           1            50    3     1       0.1353712014E-05      50    3    1         0.6240492709E-06      0.8156854948E-06
          0                 7           1            50    3     1      -0.6842592579E-07      50    3    1        -0.3182426173E-07      0.4159545613E-07

    ------------------------------------------------
       NWT REQUIRED            7 OUTER ITERATIONS 
       AND A TOTAL OF         11 INNER ITERATIONS.
    ------------------------------------------------

 NO OUTPUT CONTROL FOR STRESS PERIOD   20   TIME STEP    1
 
 WELLS WITH REDUCED PUMPING FOR STRESS PERIOD    20 TIME STEP     1
   LAY   ROW   COL         APPL.Q          ACT.Q        GW-HEAD       CELL-BOT
     1     3    50  -0.145918E+01  -0.679466E+00   0.534334E+01   0.000000E+00
     1     5    55  -0.145918E+01  -0.584174E+00   0.480813E+01   0.000000E+00
 
 
 SOLVING FOR HEAD 
                                                   Max.-Head-Change                         Max.-Flux-Residual
  Residual-Control   Outer-Iter.   Inner-Iter.     Column Row Layer    Maximum-Head-Change  Column Row Layer    Maximum-Flux-Residual          L2-NORM 
          0                 1           2            50    3     1      -0.2404836785E+00      50    3    1        -0.9741313414E-01      0.1302664345E+00
          0                 2           2            50    3     1       0.2269077641E-01      50    3    1         0.9575608524E-02      0.1277010830E-01
          0                 3           2            50    3     1      -0.2048271896E-02      50    3    1        -0.8641671430E-03      0.1148568603E-02
          0                 4           2            50    3     1       0.1619481323E-03      50    3    1         0.6916681684E-04      0.9201534292E-04
          0                 5           1            50    3     1      -0.1129941727E-04      50    3    1        -0.4864115490E-05      0.6468261600E-05
          0                 6           1            50    3     1       0.6779429237E-06      50    3    1         0.2946780880E-06      0.3919295022E-06

    ------------------------------------------------
       NWT REQUIRED            6 OUTER ITERATIONS 
       AND A TOTAL OF         10 INNER ITERATIONS.
    ------------------------------------------------

 NO OUTPUT CONTROL FOR STRESS PERIOD   20   TIME STEP    2
 
 WELLS WITH REDUCED PUMPING FOR STRESS PERIOD    20 TIME STEP     2
   LAY   ROW   COL         APPL.Q          ACT.Q        GW-HEAD       CELL-BOT
     1     3    50  -0.145990E+01  -0.637039E+00   0.512365E+01   0.000000E+00
     1     5    55  -0.145990E+01  -0.547333E+00   0.461550E+01   0.000000E+00
 
 
 SOLVING FOR HEAD 
                                                   Max.-Head-Change                         Max.-Flux-Residual
  Residual-Control   Outer-Iter.   Inner-Iter.     Column Row Layer    Maximum-Head-Change  Column Row Layer    Maximum-Flux-Residual          L2-NORM 
          0                 1           2            50    3     1      -0.1236767726E+00      50    3    1        -0.4572243977E-01      0.6422058490E-01
          0                 2           2            50    3     1       0.1136392164E-01      50    3    1         0.4506836257E-02      0.6309105629E-02
          0                 3           2            50    3     1      -0.1031832569E-02      50    3    1        -0.4066809112E-03      0.5651979633E-03
          0                 4           1            50    3     1       0.8146086826E-04      50    3    1         0.3254388631E-04      0.4530202489E-04
          0                 5           1            50    3     1      -0.5686319108E-05      50    3    1        -0.2288864717E-05      0.3183995108E-05
          0                 6           1            50    3     1       0.3411006612E-06      50    3    1         0.1386563864E-06      0.1929358899E-06

    ------------------------------------------------
       NWT REQUIRED            6 OUTER ITERATIONS 
       AND A TOTAL OF          9 INNER ITERATIONS.
    ------------------------------------------------

 NO OUTPUT CONTROL FOR STRESS PERIOD   20   TIME STEP    3
 
 WELLS WITH REDUCED PUMPING FOR STRESS PERIOD    20 TIME STEP     3
   LAY   ROW   COL         APPL.Q          ACT.Q        GW-HEAD       CELL-BOT
     1     3    50  -0.146012E+01  -0.615185E+00   0.501038E+01   0.000000E+00
     1     5    55  -0.146012E+01  -0.528285E+00   0.451541E+01   0.000000E+00
 
 
 SOLVING FOR HEAD 
                                                   Max.-Head-Change                         Max.-Flux-Residual
  Residual-Control   Outer-Iter.   Inner-Iter.     Column Row Layer    Maximum-Head-Change  Column Row Layer    Maximum-Flux-Residual          L2-NORM 
          0                 1           2            50    3     1      -0.6475164228E-01      50    3    1        -0.2130470754E-01      0.3470295938E-01
          0                 2           2            50    3     1       0.5750676642E-02      50    3    1         0.2110849326E-02      0.3414339899E-02
          0                 3           2            50    3     1      -0.5253303268E-03      50    3    1        -0.1904896767E-03      0.3047760797E-03
          0                 4           1            50    3     1       0.4142763926E-04      50    3    1         0.1524111719E-04      0.2444944911E-04
          0                 5           1            50    3     1      -0.2892609104E-05      50    3    1        -0.1071999645E-05      0.1717814301E-05
          0                 6           1            50    3     1       0.1734970993E-06      50    3    1         0.6493783128E-07      0.1041054155E-06

    ------------------------------------------------
       NWT REQUIRED            6 OUTER ITERATIONS 
       AND A TOTAL OF          9 INNER ITERATIONS.
    ------------------------------------------------

 NO OUTPUT CONTROL FOR STRESS PERIOD   20   TIME STEP    4
 
 WELLS WITH REDUCED PUMPING FOR STRESS PERIOD    20 TIME STEP     4
   LAY   ROW   COL         APPL.Q          ACT.Q        GW-HEAD       CELL-BOT
     1     3    50  -0.145992E+01  -0.603613E+00   0.495090E+01   0.000000E+00
     1     5    55  -0.145992E+01  -0.518185E+00   0.446264E+01   0.000000E+00
 
 
 SOLVING FOR HEAD 
                                                   Max.-Head-Change                         Max.-Flux-Residual
  Residual-Control   Outer-Iter.   Inner-Iter.     Column Row Layer    Maximum-Head-Change  Column Row Layer    Maximum-Flux-Residual          L2-NORM 
          0                 1           2            50    2     1      -0.4306542793E-01      50    3    1        -0.1028429624E-01      0.2292723022E-01
          0                 2           2            50    2     1       0.4215963008E-02      50    3    1         0.1023484330E-02      0.2267231570E-02
          0                 3           2            50    2     1      -0.3766568738E-03      50    3    1        -0.9233843044E-04      0.2033918539E-03
          0                 4           1            50    2     1       0.2988687931E-04      50    3    1         0.7390458985E-05      0.1632738661E-04
          0                 5           1            50    2     1      -0.2082132326E-05      50    3    1        -0.5196808955E-06      0.1146808337E-05
          0                 6           1            50    2     1       0.1250225401E-06      50    3    1         0.3148555044E-07      0.6951235857E-07

    ------------------------------------------------
       NWT REQUIRED            6 OUTER ITERATIONS 
       AND A TOTAL OF          9 INNER ITERATIONS.
    ------------------------------------------------

 NO OUTPUT CONTROL FOR STRESS PERIOD   20   TIME STEP    5
 
 WELLS WITH REDUCED PUMPING FOR STRESS PERIOD    20 TIME STEP     5
   LAY   ROW   COL         APPL.Q          ACT.Q        GW-HEAD       CELL-BOT
     1     3    50  -0.146010E+01  -0.597294E+00   0.491774E+01   0.000000E+00
     1     5    55  -0.146010E+01  -0.512661E+00   0.443316E+01   0.000000E+00
 
 
 SOLVING FOR HEAD 
                                                   Max.-Head-Change                         Max.-Flux-Residual
  Residual-Control   Outer-Iter.   Inner-Iter.     Column Row Layer    Maximum-Head-Change  Column Row Layer    Maximum-Flux-Residual          L2-NORM 
          0                 1           2            50    2     1      -0.3755549694E-01      50    2    1        -0.6116705029E-02      0.1808941978E-01
          0                 2           2            50    2     1       0.3677256919E-02      50    2    1         0.6098059389E-03      0.1809774108E-02
          0                 3           2            50    2     1      -0.3284146619E-03      50    2    1        -0.5490247269E-04      0.1642050893E-03
          0                 4           1            50    2     1       0.2606017831E-04      50    2    1         0.4397532004E-05      0.1318334985E-04
          0                 5           1            50    2     1      -0.1815554380E-05      50    2    1        -0.3091432245E-06      0.9264283779E-06
          0                 6           1            50    2     1       0.1090132535E-06      50    2    1         0.1873285368E-07      0.5613795981E-07

    ------------------------------------------------
       NWT REQUIRED            6 OUTER ITERATIONS 
       AND A TOTAL OF          9 INNER ITERATIONS.
    ------------------------------------------------

 NO OUTPUT CONTROL FOR STRESS PERIOD   20   TIME STEP    6
 
 WELLS WITH REDUCED PUMPING FOR STRESS PERIOD    20 TIME STEP     6
   LAY   ROW   COL         APPL.Q          ACT.Q        GW-HEAD       CELL-BOT
     1     3    50  -0.145992E+01  -0.593427E+00   0.489804E+01   0.000000E+00
     1     5    55  -0.145992E+01  -0.509305E+00   0.441577E+01   0.000000E+00
 
 
 SOLVING FOR HEAD 
                                                   Max.-Head-Change                         Max.-Flux-Residual
  Residual-Control   Outer-Iter.   Inner-Iter.     Column Row Layer    Maximum-Head-Change  Column Row Layer    Maximum-Flux-Residual          L2-NORM 
          0                 1           2            50    2     1      -0.3262107488E-01      50    2    1        -0.4849088266E-02      0.1564405231E-01
          0                 2           2            50    2     1       0.3192778807E-02      50    2    1         0.4833735867E-03      0.1614633120E-02
          0                 3           2            50    2     1      -0.2851644722E-03      50    2    1        -0.4351970803E-04      0.1479417197E-03
          0                 4           1            50    2     1       0.2262499100E-04      50    2    1         0.3485802262E-05      0.1191127778E-04
          0                 5           1            50    2     1      -0.1576352846E-05      50    2    1        -0.2450493192E-06      0.8369214222E-06
          0                 6           1            50    2     1       0.9464570146E-07      50    2    1         0.1484901682E-07      0.5071992743E-07

    ------------------------------------------------
       NWT REQUIRED            6 OUTER ITERATIONS 
       AND A TOTAL OF          9 INNER ITERATIONS.
    ------------------------------------------------

 NO OUTPUT CONTROL FOR STRESS PERIOD   20   TIME STEP    7
 
 WELLS WITH REDUCED PUMPING FOR STRESS PERIOD    20 TIME STEP     7
   LAY   ROW   COL         APPL.Q          ACT.Q        GW-HEAD       CELL-BOT
     1     3    50  -0.146004E+01  -0.590920E+00   0.488475E+01   0.000000E+00
     1     5    55  -0.146004E+01  -0.507155E+00   0.440416E+01   0.000000E+00
 
 
 SOLVING FOR HEAD 
                                                   Max.-Head-Change                         Max.-Flux-Residual
  Residual-Control   Outer-Iter.   Inner-Iter.     Column Row Layer    Maximum-Head-Change  Column Row Layer    Maximum-Flux-Residual          L2-NORM 
          0                 1           2            50    2     1      -0.2847725955E-01      50    2    1        -0.3829218948E-02      0.1439814207E-01
          0                 2           2            50    2     1       0.2786192990E-02      50    2    1         0.3817909673E-03      0.1508151634E-02
          0                 3           2            50    2     1      -0.2488270360E-03      50    2    1        -0.3437295827E-04      0.1398106406E-03
          0                 4           1            50    2     1       0.1974132733E-04      50    2    1         0.2753181355E-05      0.1128867392E-04
          0                 5           1            50    2     1      -0.1375418580E-05      50    2    1        -0.1935465666E-06      0.7935565368E-06
          0                 6           1            50    2     1       0.8258176982E-07      50    2    1         0.1172815453E-07      0.4808687238E-07

    ------------------------------------------------
       NWT REQUIRED            6 OUTER ITERATIONS 
       AND A TOTAL OF          9 INNER ITERATIONS.
    ------------------------------------------------

 NO OUTPUT CONTROL FOR STRESS PERIOD   20   TIME STEP    8
 
 WELLS WITH REDUCED PUMPING FOR STRESS PERIOD    20 TIME STEP     8
   LAY   ROW   COL         APPL.Q          ACT.Q        GW-HEAD       CELL-BOT
     1     3    50  -0.146006E+01  -0.589044E+00   0.487495E+01   0.000000E+00
     1     5    55  -0.146006E+01  -0.505560E+00   0.439567E+01   0.000000E+00
 
 
 SOLVING FOR HEAD 
                                                   Max.-Head-Change                         Max.-Flux-Residual
  Residual-Control   Outer-Iter.   Inner-Iter.     Column Row Layer    Maximum-Head-Change  Column Row Layer    Maximum-Flux-Residual          L2-NORM 
          0                 1           2            50    1     1      -0.2643316331E-01      50    2    1        -0.3039013414E-02      0.1360818278E-01
          0                 2           2            50    1     1       0.2611180224E-02      50    2    1         0.3031089613E-03      0.1438139707E-02
          0                 3           2            50    1     1      -0.2329580956E-03      50    2    1        -0.2728805652E-04      0.1349914155E-03
          0                 4           1            50    1     1       0.1848844857E-04      50    2    1         0.2185708395E-05      0.1094010472E-04
          0                 5           1            50    1     1      -0.1287813539E-05      50    2    1        -0.1536535921E-06      0.7697086336E-06
          0                 6           1            50    1     1       0.7731732741E-07      50    2    1         0.9310797855E-08      0.4663765499E-07

    ------------------------------------------------
       NWT REQUIRED            6 OUTER ITERATIONS 
       AND A TOTAL OF          9 INNER ITERATIONS.
    ------------------------------------------------

 NO OUTPUT CONTROL FOR STRESS PERIOD   20   TIME STEP    9
 
 WELLS WITH REDUCED PUMPING FOR STRESS PERIOD    20 TIME STEP     9
   LAY   ROW   COL         APPL.Q          ACT.Q        GW-HEAD       CELL-BOT
     1     3    50  -0.145994E+01  -0.587516E+00   0.486726E+01   0.000000E+00
     1     5    55  -0.145994E+01  -0.504267E+00   0.438905E+01   0.000000E+00
 
 
 SOLVING FOR HEAD 
                                                   Max.-Head-Change                         Max.-Flux-Residual
  Residual-Control   Outer-Iter.   Inner-Iter.     Column Row Layer    Maximum-Head-Change  Column Row Layer    Maximum-Flux-Residual          L2-NORM 
          0                 1           2            50    1     1      -0.2559257945E-01      50    1    1        -0.2561963681E-02      0.1305992301E-01
          0                 2           2            50    1     1       0.2527103168E-02      50    1    1         0.2559130381E-03      0.1388809533E-02
          0                 3           2            50    1     1      -0.2254529486E-03      50    1    1        -0.2303504792E-04      0.1320256305E-03
          0                 4           1            50    1     1       0.1789296480E-04      50    1    1         0.1845085010E-05      0.1074996625E-04
          0                 5           1            50    1     1      -0.1246261586E-05      50    1    1        -0.1296791518E-06      0.7572665887E-06
          0                 6           1            50    1     1       0.7481833431E-07      50    1    1         0.7856096440E-08      0.4588327756E-07

    ------------------------------------------------
       NWT REQUIRED            6 OUTER ITERATIONS 
       AND A TOTAL OF          9 INNER ITERATIONS.
    ------------------------------------------------

 NO OUTPUT CONTROL FOR STRESS PERIOD   20   TIME STEP   10
 
 WELLS WITH REDUCED PUMPING FOR STRESS PERIOD    20 TIME STEP    10
   LAY   ROW   COL         APPL.Q          ACT.Q        GW-HEAD       CELL-BOT
     1     3    50  -0.146003E+01  -0.586264E+00   0.486054E+01   0.000000E+00
     1     5    55  -0.146003E+01  -0.503207E+00   0.438325E+01   0.000000E+00
 
 
 SOLVING FOR HEAD 
                                                   Max.-Head-Change                         Max.-Flux-Residual
  Residual-Control   Outer-Iter.   Inner-Iter.     Column Row Layer    Maximum-Head-Change  Column Row Layer    Maximum-Flux-Residual          L2-NORM 
          0                 1           2            50    1     1      -0.2438776359E-01      50    1    1        -0.2255085006E-02      0.1263426283E-01
          0                 2           2            50    1     1       0.2407006364E-02      50    1    1         0.2252221405E-03      0.1349976054E-02
          0                 3           2            50    1     1      -0.2147287786E-03      50    1    1        -0.2027288589E-04      0.1299944424E-03
          0                 4           1            50    1     1       0.1704205659E-04      50    1    1         0.1623835595E-05      0.1064384097E-04
          0                 5           1            50    1     1      -0.1186893654E-05      50    1    1        -0.1141186358E-06      0.7510877887E-06
          0                 6           1            50    1     1       0.7124905440E-07      50    1    1         0.6912763695E-08      0.4551447799E-07

    ------------------------------------------------
       NWT REQUIRED            6 OUTER ITERATIONS 
       AND A TOTAL OF          9 INNER ITERATIONS.
    ------------------------------------------------

 NO OUTPUT CONTROL FOR STRESS PERIOD   20   TIME STEP   11
 
 WELLS WITH REDUCED PUMPING FOR STRESS PERIOD    20 TIME STEP    11
   LAY   ROW   COL         APPL.Q          ACT.Q        GW-HEAD       CELL-BOT
     1     3    50  -0.146005E+01  -0.585134E+00   0.485463E+01   0.000000E+00
     1     5    55  -0.146005E+01  -0.502246E+00   0.437813E+01   0.000000E+00
 
 
 SOLVING FOR HEAD 
                                                   Max.-Head-Change                         Max.-Flux-Residual
  Residual-Control   Outer-Iter.   Inner-Iter.     Column Row Layer    Maximum-Head-Change  Column Row Layer    Maximum-Flux-Residual          L2-NORM 
          0                 1           2            53    4     1       0.2299332008E-01      53    4    1         0.2776431510E-02      0.1284709244E-01
          0                 2           2            50    1     1       0.2264823077E-02      50    1    1         0.1951029169E-03      0.1314724849E-02
          0                 3           2            50    1     1      -0.2019893983E-03      50    1    1        -0.1756189470E-04      0.1288435830E-03
          0                 4           1            50    1     1       0.1603235878E-04      50    1    1         0.1406687156E-05      0.1058626798E-04
          0                 5           1            50    1     1      -0.1116385247E-05      50    1    1        -0.9884599234E-07      0.7495759816E-06
          0                 6           1            50    1     1       0.6701370491E-07      50    1    1         0.5986877882E-08      0.4540534044E-07

    ------------------------------------------------
       NWT REQUIRED            6 OUTER ITERATIONS 
       AND A TOTAL OF          9 INNER ITERATIONS.
    ------------------------------------------------

 NO OUTPUT CONTROL FOR STRESS PERIOD   20   TIME STEP   12
 
 WELLS WITH REDUCED PUMPING FOR STRESS PERIOD    20 TIME STEP    12
   LAY   ROW   COL         APPL.Q          ACT.Q        GW-HEAD       CELL-BOT
     1     3    50  -0.145994E+01  -0.584114E+00   0.484954E+01   0.000000E+00
     1     5    55  -0.145994E+01  -0.501382E+00   0.437374E+01   0.000000E+00
 
 
 SOLVING FOR HEAD 
                                                   Max.-Head-Change                         Max.-Flux-Residual
  Residual-Control   Outer-Iter.   Inner-Iter.     Column Row Layer    Maximum-Head-Change  Column Row Layer    Maximum-Flux-Residual          L2-NORM 
          0                 1           2            54    4     1       0.2415380728E-01      51    4    1         0.2907825771E-02      0.1262836474E-01
          0                 2           2            50    1     1       0.2107977462E-02      50    1    1         0.1668429780E-03      0.1261121451E-02
          0                 3           2            50    1     1      -0.1878146162E-03      50    1    1        -0.1501812232E-04      0.1257511651E-03
          0                 4           1            50    1     1       0.1491263633E-04      50    1    1         0.1202933781E-05      0.1041812651E-04
          0                 5           1            50    1     1      -0.1038134515E-05       1    4    1        -0.8481248770E-07      0.7400394939E-06
          0                 6           1            50    1     1       0.6231145217E-07       1    4    1         0.5169905393E-08      0.4489626160E-07

    ------------------------------------------------
       NWT REQUIRED            6 OUTER ITERATIONS 
       AND A TOTAL OF          9 INNER ITERATIONS.
    ------------------------------------------------

 NO OUTPUT CONTROL FOR STRESS PERIOD   20   TIME STEP   13
 
 WELLS WITH REDUCED PUMPING FOR STRESS PERIOD    20 TIME STEP    13
   LAY   ROW   COL         APPL.Q          ACT.Q        GW-HEAD       CELL-BOT
     1     3    50  -0.145996E+01  -0.583298E+00   0.484526E+01   0.000000E+00
     1     5    55  -0.145996E+01  -0.500700E+00   0.437009E+01   0.000000E+00
 
 
 SOLVING FOR HEAD 
                                                   Max.-Head-Change                         Max.-Flux-Residual
  Residual-Control   Outer-Iter.   Inner-Iter.     Column Row Layer    Maximum-Head-Change  Column Row Layer    Maximum-Flux-Residual          L2-NORM 
          0                 1           2            55    4     1       0.2293965795E-01      55    4    1         0.2724388145E-02      0.1180431726E-01
          0                 2           2            51    1     1       0.1963262868E-02      50    1    1         0.1408216297E-03      0.1216448884E-02
          0                 3           2            51    1     1      -0.1746085111E-03       1    4    1        -0.1301468487E-04      0.1226131192E-03
          0                 4           1            51    1     1       0.1387230070E-04       1    4    1         0.1209415942E-05      0.1027394656E-04
          0                 5           1            51    1     1      -0.9658178800E-06       1    4    1        -0.8879940339E-07      0.7320737180E-06

    ------------------------------------------------
       NWT REQUIRED            5 OUTER ITERATIONS 
       AND A TOTAL OF          8 INNER ITERATIONS.
    ------------------------------------------------

 NO OUTPUT CONTROL FOR STRESS PERIOD   20   TIME STEP   14
 
 WELLS WITH REDUCED PUMPING FOR STRESS PERIOD    20 TIME STEP    14
   LAY   ROW   COL         APPL.Q          ACT.Q        GW-HEAD       CELL-BOT
     1     3    50  -0.146003E+01  -0.583229E+00   0.484475E+01   0.000000E+00
     1     5    55  -0.146003E+01  -0.500841E+00   0.437071E+01   0.000000E+00
 
 
 SOLVING FOR HEAD 
                                                   Max.-Head-Change                         Max.-Flux-Residual
  Residual-Control   Outer-Iter.   Inner-Iter.     Column Row Layer    Maximum-Head-Change  Column Row Layer    Maximum-Flux-Residual          L2-NORM 
          0                 1           2            51    1     1      -0.1874562564E-01      50    4    1         0.2045170277E-02      0.1363151221E-01
          0                 2           2            51    1     1       0.1860495320E-02     100    4    1         0.1635663057E-03      0.1346256957E-02
          0                 3           2            51    1     1      -0.1657433625E-03       4    4    1        -0.1538405573E-04      0.1262832865E-03
          0                 4           1            51    1     1       0.1315886041E-04       2    4    1         0.1294498706E-05      0.1033549986E-04
          0                 5           1            51    1     1      -0.9163849909E-06       2    4    1        -0.9312931581E-07      0.7335223477E-06

    ------------------------------------------------
       NWT REQUIRED            5 OUTER ITERATIONS 
       AND A TOTAL OF          8 INNER ITERATIONS.
    ------------------------------------------------

 NO OUTPUT CONTROL FOR STRESS PERIOD   20   TIME STEP   15
 
 WELLS WITH REDUCED PUMPING FOR STRESS PERIOD    20 TIME STEP    15
   LAY   ROW   COL         APPL.Q          ACT.Q        GW-HEAD       CELL-BOT
     1     3    50  -0.146003E+01  -0.583374E+00   0.484550E+01   0.000000E+00
     1     5    55  -0.146003E+01  -0.501018E+00   0.437165E+01   0.000000E+00
 
 
 SOLVING FOR HEAD 
                                                   Max.-Head-Change                         Max.-Flux-Residual
  Residual-Control   Outer-Iter.   Inner-Iter.     Column Row Layer    Maximum-Head-Change  Column Row Layer    Maximum-Flux-Residual          L2-NORM 
          0                 1           2            51    1     1      -0.1760353264E-01      83    4    1        -0.1868814064E-02      0.1265165882E-01
          0                 2           2            51    1     1       0.1737019713E-02      20    4    1         0.1498743161E-03      0.1155304994E-02
          0                 3           2            51    1     1      -0.1549765540E-03       1    4    1        -0.1247077258E-04      0.1036035642E-03
          0                 4           1            51    1     1       0.1229948233E-04       1    4    1         0.9912165986E-06      0.8345506878E-05
          0                 5           1            51    1     1      -0.8566430019E-06       1    4    1        -0.6928541652E-07      0.5900337572E-06

    ------------------------------------------------
       NWT REQUIRED            5 OUTER ITERATIONS 
       AND A TOTAL OF          8 INNER ITERATIONS.
    ------------------------------------------------

 NO OUTPUT CONTROL FOR STRESS PERIOD   20   TIME STEP   16
 
 WELLS WITH REDUCED PUMPING FOR STRESS PERIOD    20 TIME STEP    16
   LAY   ROW   COL         APPL.Q          ACT.Q        GW-HEAD       CELL-BOT
     1     3    50  -0.146003E+01  -0.583222E+00   0.484471E+01   0.000000E+00
     1     5    55  -0.146003E+01  -0.500912E+00   0.437108E+01   0.000000E+00
 
 
 SOLVING FOR HEAD 
                                                   Max.-Head-Change                         Max.-Flux-Residual
  Residual-Control   Outer-Iter.   Inner-Iter.     Column Row Layer    Maximum-Head-Change  Column Row Layer    Maximum-Flux-Residual          L2-NORM 
          0                 1           2            51    1     1      -0.1643189732E-01      77    4    1        -0.1915631754E-02      0.9881097410E-02
          0                 2           2            51    1     1       0.1613445414E-02      27    4    1         0.1405372877E-03      0.8593164619E-03
          0                 3           2            51    1     1      -0.1440356480E-03      27    4    1        -0.1100486892E-04      0.7782431106E-04
          0                 4           1            51    1     1       0.1143049429E-04      26    4    1         0.8687241291E-06      0.6368380967E-05
          0                 5           1            51    1     1      -0.7960910109E-06      26    4    1        -0.6569554145E-07      0.4562384633E-06

    ------------------------------------------------
       NWT REQUIRED            5 OUTER ITERATIONS 
       AND A TOTAL OF          8 INNER ITERATIONS.
    ------------------------------------------------

 NO OUTPUT CONTROL FOR STRESS PERIOD   20   TIME STEP   17
 
 WELLS WITH REDUCED PUMPING FOR STRESS PERIOD    20 TIME STEP    17
   LAY   ROW   COL         APPL.Q          ACT.Q        GW-HEAD       CELL-BOT
     1     3    50  -0.145998E+01  -0.582900E+00   0.484314E+01   0.000000E+00
     1     5    55  -0.145998E+01  -0.500643E+00   0.436974E+01   0.000000E+00
 
 
 SOLVING FOR HEAD 
                                                   Max.-Head-Change                         Max.-Flux-Residual
  Residual-Control   Outer-Iter.   Inner-Iter.     Column Row Layer    Maximum-Head-Change  Column Row Layer    Maximum-Flux-Residual          L2-NORM 
          0                 1           2            51    1     1      -0.1533532493E-01      73    4    1        -0.1948815924E-02      0.8944408118E-02
          0                 2           2            51    1     1       0.1498256127E-02      31    4    1         0.1372951423E-03      0.7400504247E-03
          0                 3           2            51    1     1      -0.1337548948E-03      32    4    1        -0.1075344357E-04      0.6741253278E-04
          0                 4           1            51    1     1       0.1061503491E-04      31    4    1         0.8272273053E-06      0.5589563719E-05
          0                 5           1            51    1     1      -0.7392474892E-06      31    4    1        -0.6176541767E-07      0.4026160434E-06

    ------------------------------------------------
       NWT REQUIRED            5 OUTER ITERATIONS 
       AND A TOTAL OF          8 INNER ITERATIONS.
    ------------------------------------------------

 NO OUTPUT CONTROL FOR STRESS PERIOD   20   TIME STEP   18
 
 WELLS WITH REDUCED PUMPING FOR STRESS PERIOD    20 TIME STEP    18
   LAY   ROW   COL         APPL.Q          ACT.Q        GW-HEAD       CELL-BOT
     1     3    50  -0.145998E+01  -0.582533E+00   0.484124E+01   0.000000E+00
     1     5    55  -0.145998E+01  -0.500319E+00   0.436804E+01   0.000000E+00
 
 
 SOLVING FOR HEAD 
                                                   Max.-Head-Change                         Max.-Flux-Residual
  Residual-Control   Outer-Iter.   Inner-Iter.     Column Row Layer    Maximum-Head-Change  Column Row Layer    Maximum-Flux-Residual          L2-NORM 
          0                 1           2            70    4     1      -0.1631622218E-01      70    4    1        -0.1873838376E-02      0.8610884121E-02
          0                 2           2            51    1     1       0.1395226959E-02      35    4    1         0.1377755555E-03      0.6938884777E-03
          0                 3           2            51    1     1      -0.1244956640E-03      36    4    1        -0.1089175782E-04      0.6413776637E-04
          0                 4           1            51    1     1       0.9880697616E-05      35    4    1         0.8466198604E-06      0.5423275199E-05
          0                 5           1            51    1     1      -0.6880087626E-06      35    4    1        -0.6321626955E-07      0.3948517170E-06

    ------------------------------------------------
       NWT REQUIRED            5 OUTER ITERATIONS 
       AND A TOTAL OF          8 INNER ITERATIONS.
    ------------------------------------------------

 NO OUTPUT CONTROL FOR STRESS PERIOD   20   TIME STEP   19
 
 WELLS WITH REDUCED PUMPING FOR STRESS PERIOD    20 TIME STEP    19
   LAY   ROW   COL         APPL.Q          ACT.Q        GW-HEAD       CELL-BOT
     1     3    50  -0.145997E+01  -0.582162E+00   0.483932E+01   0.000000E+00
     1     5    55  -0.145997E+01  -0.499977E+00   0.436623E+01   0.000000E+00
 
 
 SOLVING FOR HEAD 
                                                   Max.-Head-Change                         Max.-Flux-Residual
  Residual-Control   Outer-Iter.   Inner-Iter.     Column Row Layer    Maximum-Head-Change  Column Row Layer    Maximum-Flux-Residual          L2-NORM 
          0                 1           2            67    4     1      -0.1707723479E-01      66    4    1        -0.1828790694E-02      0.8254332526E-02
          0                 2           2            51    1     1       0.1305079854E-02      39    4    1         0.1370661392E-03      0.6759671774E-03
          0                 3           1            51    1     1      -0.1163216445E-03      39    4    1        -0.1091598194E-04      0.6457770705E-04
          0                 4           1            51    1     1       0.9221495157E-05      40    4    1         0.8342004278E-06      0.5574143724E-05
          0                 5           1            51    1     1      -0.6418875409E-06      38    4    1        -0.5841670614E-07      0.4099676726E-06

    ------------------------------------------------
       NWT REQUIRED            5 OUTER ITERATIONS 
       AND A TOTAL OF          7 INNER ITERATIONS.
    ------------------------------------------------

 NO OUTPUT CONTROL FOR STRESS PERIOD   20   TIME STEP   20
 
 WELLS WITH REDUCED PUMPING FOR STRESS PERIOD    20 TIME STEP    20
   LAY   ROW   COL         APPL.Q          ACT.Q        GW-HEAD       CELL-BOT
     1     3    50  -0.146002E+01  -0.581815E+00   0.483741E+01   0.000000E+00
     1     5    55  -0.146002E+01  -0.499642E+00   0.436437E+01   0.000000E+00
 
 
 SOLVING FOR HEAD 
                                                   Max.-Head-Change                         Max.-Flux-Residual
  Residual-Control   Outer-Iter.   Inner-Iter.     Column Row Layer    Maximum-Head-Change  Column Row Layer    Maximum-Flux-Residual          L2-NORM 
          0                 1           2            72    4     1      -0.1805022353E-01      64    4    1        -0.1804725227E-02      0.8485469783E-02
          0                 2           2            75    7     1       0.1241578348E-02      42    4    1         0.1307075499E-03      0.6814973352E-03
          0                 3           1            51    1     1      -0.1091374279E-03      42    4    1        -0.1026294155E-04      0.6625101582E-04
          0                 4           1            51    1     1       0.8642748712E-05      75    4    1        -0.8297906984E-06      0.5838507255E-05
          0                 5           1            51    1     1      -0.6012375766E-06      76    4    1         0.6556223120E-07      0.4348947013E-06

    ------------------------------------------------
       NWT REQUIRED            5 OUTER ITERATIONS 
       AND A TOTAL OF          7 INNER ITERATIONS.
    ------------------------------------------------

 NO OUTPUT CONTROL FOR STRESS PERIOD   20   TIME STEP   21
 
 WELLS WITH REDUCED PUMPING FOR STRESS PERIOD    20 TIME STEP    21
   LAY   ROW   COL         APPL.Q          ACT.Q        GW-HEAD       CELL-BOT
     1     3    50  -0.146000E+01  -0.581487E+00   0.483573E+01   0.000000E+00
     1     5    55  -0.146000E+01  -0.499309E+00   0.436263E+01   0.000000E+00
 
 
 SOLVING FOR HEAD 
                                                   Max.-Head-Change                         Max.-Flux-Residual
  Residual-Control   Outer-Iter.   Inner-Iter.     Column Row Layer    Maximum-Head-Change  Column Row Layer    Maximum-Flux-Residual          L2-NORM 
          0                 1           2            74    4     1      -0.2106647612E-01      61    4    1        -0.1857957620E-02      0.8475594707E-02
          0                 2           2            74    7     1       0.1506111266E-02      44    4    1         0.1230314357E-03      0.7088320490E-03
          0                 3           2            74    7     1      -0.1155481972E-03      77    4    1         0.9141403387E-05      0.7179294906E-04
          0                 4           1            74    7     1       0.8311640800E-05      77    4    1        -0.9511671060E-06      0.6473012898E-05
          0                 5           1            51    1     1      -0.5670238192E-06      77    4    1         0.7429573046E-07      0.4864234028E-06

    ------------------------------------------------
       NWT REQUIRED            5 OUTER ITERATIONS 
       AND A TOTAL OF          8 INNER ITERATIONS.
    ------------------------------------------------

 NO OUTPUT CONTROL FOR STRESS PERIOD   20   TIME STEP   22
 
 WELLS WITH REDUCED PUMPING FOR STRESS PERIOD    20 TIME STEP    22
   LAY   ROW   COL         APPL.Q          ACT.Q        GW-HEAD       CELL-BOT
     1     3    50  -0.145999E+01  -0.581191E+00   0.483421E+01   0.000000E+00
     1     5    55  -0.145999E+01  -0.498991E+00   0.436096E+01   0.000000E+00
 
 
 SOLVING FOR HEAD 
                                                   Max.-Head-Change                         Max.-Flux-Residual
  Residual-Control   Outer-Iter.   Inner-Iter.     Column Row Layer    Maximum-Head-Change  Column Row Layer    Maximum-Flux-Residual          L2-NORM 
          0                 1           2            59    4     1      -0.2429159670E-01      59    4    1        -0.1857987541E-02      0.8900861268E-02
          0                 2           2            74    7     1       0.1761629481E-02      46    4    1         0.9826685609E-04      0.7381195181E-03
          0                 3           2            74    7     1      -0.1354106822E-03      73    4    1         0.1012032765E-04      0.7656387461E-04
          0                 4           1            74    7     1       0.9719984438E-05      73    4    1        -0.1057111243E-05      0.7013920298E-05
          0                 5           1            74    7     1      -0.6349705023E-06      74    4    1         0.8310618327E-07      0.5302384657E-06

    ------------------------------------------------
       NWT REQUIRED            5 OUTER ITERATIONS 
       AND A TOTAL OF          8 INNER ITERATIONS.
    ------------------------------------------------

 NO OUTPUT CONTROL FOR STRESS PERIOD   20   TIME STEP   23
 
 WELLS WITH REDUCED PUMPING FOR STRESS PERIOD    20 TIME STEP    23
   LAY   ROW   COL         APPL.Q          ACT.Q        GW-HEAD       CELL-BOT
     1     3    50  -0.145998E+01  -0.580892E+00   0.483267E+01   0.000000E+00
     1     5    55  -0.145998E+01  -0.498657E+00   0.435920E+01   0.000000E+00
 
 
 SOLVING FOR HEAD 
                                                   Max.-Head-Change                         Max.-Flux-Residual
  Residual-Control   Outer-Iter.   Inner-Iter.     Column Row Layer    Maximum-Head-Change  Column Row Layer    Maximum-Flux-Residual          L2-NORM 
          0                 1           2            57    4     1      -0.3279899728E-01      57    4    1        -0.1946355162E-02      0.9381886539E-02
          0                 2           2            73    7     1       0.2059132474E-02      48    4    1         0.7557180056E-04      0.7984953272E-03
          0                 3           2            73    7     1      -0.1566064051E-03      77    4    1         0.1050713407E-04      0.8510691663E-04
          0                 4           1            73    7     1       0.1109823646E-04      77    4    1        -0.1110588114E-05      0.7872186381E-05
          0                 5           1            73    7     1      -0.7163223085E-06      76    4    1         0.8891191960E-07      0.5972970796E-06

    ------------------------------------------------
       NWT REQUIRED            5 OUTER ITERATIONS 
       AND A TOTAL OF          8 INNER ITERATIONS.
    ------------------------------------------------

 NO OUTPUT CONTROL FOR STRESS PERIOD   20   TIME STEP   24
 
 WELLS WITH REDUCED PUMPING FOR STRESS PERIOD    20 TIME STEP    24
   LAY   ROW   COL         APPL.Q          ACT.Q        GW-HEAD       CELL-BOT
     1     3    50  -0.145999E+01  -0.580362E+00   0.482989E+01   0.000000E+00
     1     5    55  -0.145999E+01  -0.498089E+00   0.435616E+01   0.000000E+00
 
 
 SOLVING FOR HEAD 
                                                   Max.-Head-Change                         Max.-Flux-Residual
  Residual-Control   Outer-Iter.   Inner-Iter.     Column Row Layer    Maximum-Head-Change  Column Row Layer    Maximum-Flux-Residual          L2-NORM 
          0                 1           3            53    4     1      -0.4821059275E-01      53    4    1        -0.1839652181E-02      0.1042017704E-01
          0                 2           2            72    1     1       0.2336488862E-02      74    4    1        -0.6325636150E-04      0.8801879160E-03
          0                 3           2            73    7     1      -0.1775845446E-03      74    4    1         0.1155520982E-04      0.9509710779E-04
          0                 4           1            73    7     1       0.1255329471E-04      74    4    1        -0.1222239403E-05      0.8803985490E-05
          0                 5           1            73    7     1      -0.8065579748E-06      74    4    1         0.9809373225E-07      0.6677644490E-06

    ------------------------------------------------
       NWT REQUIRED            5 OUTER ITERATIONS 
       AND A TOTAL OF          9 INNER ITERATIONS.
    ------------------------------------------------

 NO OUTPUT CONTROL FOR STRESS PERIOD   20   TIME STEP   25
 
 WELLS WITH REDUCED PUMPING FOR STRESS PERIOD    20 TIME STEP    25
   LAY   ROW   COL         APPL.Q          ACT.Q        GW-HEAD       CELL-BOT
     1     3    50  -0.146002E+01  -0.578890E+00   0.482217E+01   0.000000E+00
     1     5    55  -0.146002E+01  -0.496564E+00   0.434801E+01   0.000000E+00
 
 
 SOLVING FOR HEAD 
                                                   Max.-Head-Change                         Max.-Flux-Residual
  Residual-Control   Outer-Iter.   Inner-Iter.     Column Row Layer    Maximum-Head-Change  Column Row Layer    Maximum-Flux-Residual          L2-NORM 
          0                 1           3            53    4     1      -0.5427598221E-01      50    4    1        -0.1698486617E-02      0.1078800394E-01
          0                 2           2            74    7     1       0.2657727684E-02      52    3    1         0.6761259553E-04      0.9645894097E-03
          0                 3           2            73    7     1      -0.2001144665E-03      71    4    1         0.1194987090E-04      0.1042386425E-03
          0                 4           1            72    7     1       0.1398297183E-04      71    4    1        -0.1266308823E-05      0.9641442709E-05
          0                 5           1            52    1     1      -0.9095618262E-06      70    4    1         0.1000579903E-06      0.7313163908E-06

    ------------------------------------------------
       NWT REQUIRED            5 OUTER ITERATIONS 
       AND A TOTAL OF          9 INNER ITERATIONS.
    ------------------------------------------------

 NO OUTPUT CONTROL FOR STRESS PERIOD   20   TIME STEP   26
 
 WELLS WITH REDUCED PUMPING FOR STRESS PERIOD    20 TIME STEP    26
   LAY   ROW   COL         APPL.Q          ACT.Q        GW-HEAD       CELL-BOT
     1     3    50  -0.146001E+01  -0.576965E+00   0.481214E+01   0.000000E+00
     1     5    55  -0.146001E+01  -0.494607E+00   0.433761E+01   0.000000E+00
 
 
 SOLVING FOR HEAD 
                                                   Max.-Head-Change                         Max.-Flux-Residual
  Residual-Control   Outer-Iter.   Inner-Iter.     Column Row Layer    Maximum-Head-Change  Column Row Layer    Maximum-Flux-Residual          L2-NORM 
          0                 1           3            53    4     1      -0.5027546500E-01      54    4    1        -0.9905545098E-03      0.1086671309E-01
          0                 2           2            72    7     1       0.3016387335E-02      52    3    1         0.8178333844E-04      0.1042520836E-02
          0                 3           2            53    1     1      -0.2373430224E-03      75    4    1         0.1210425984E-04      0.1127689719E-03
          0                 4           1            53    1     1       0.1853125379E-04      75    4    1        -0.1312087738E-05      0.1043021812E-04
          0                 5           1            53    1     1      -0.1277799156E-05      74    4    1         0.1069671516E-06      0.7915011086E-06
          0                 6           1            53    1     1       0.7667741730E-07      74    4    1        -0.7020460657E-08      0.4999321853E-07

    ------------------------------------------------
       NWT REQUIRED            6 OUTER ITERATIONS 
       AND A TOTAL OF         10 INNER ITERATIONS.
    ------------------------------------------------

 NO OUTPUT CONTROL FOR STRESS PERIOD   20   TIME STEP   27
 
 WELLS WITH REDUCED PUMPING FOR STRESS PERIOD    20 TIME STEP    27
   LAY   ROW   COL         APPL.Q          ACT.Q        GW-HEAD       CELL-BOT
     1     3    50  -0.146000E+01  -0.575193E+00   0.480291E+01   0.000000E+00
     1     5    55  -0.146000E+01  -0.492780E+00   0.432790E+01   0.000000E+00
 
 
 SOLVING FOR HEAD 
                                                   Max.-Head-Change                         Max.-Flux-Residual
  Residual-Control   Outer-Iter.   Inner-Iter.     Column Row Layer    Maximum-Head-Change  Column Row Layer    Maximum-Flux-Residual          L2-NORM 
          0                 1           3            53    4     1      -0.5266154822E-01      53    4    1        -0.8772215554E-03      0.1111321402E-01
          0                 2           2            53    1     1       0.3479271768E-02      53    3    1         0.8042448668E-04      0.1098374118E-02
          0                 3           2            53    1     1      -0.2932109601E-03      72    4    1         0.1259108683E-04      0.1190227771E-03
          0                 4           1            53    1     1       0.2282203957E-04      72    4    1        -0.1368611878E-05      0.1103333997E-04
          0                 5           1            53    1     1      -0.1569766323E-05      72    4    1         0.1124242424E-06      0.8380625179E-06
          0                 6           1            53    1     1       0.9425417938E-07      72    4    1        -0.7390601908E-08      0.5304756607E-07

    ------------------------------------------------
       NWT REQUIRED            6 OUTER ITERATIONS 
       AND A TOTAL OF         10 INNER ITERATIONS.
    ------------------------------------------------

 NO OUTPUT CONTROL FOR STRESS PERIOD   20   TIME STEP   28
 
 WELLS WITH REDUCED PUMPING FOR STRESS PERIOD    20 TIME STEP    28
   LAY   ROW   COL         APPL.Q          ACT.Q        GW-HEAD       CELL-BOT
     1     3    50  -0.146000E+01  -0.573433E+00   0.479371E+01   0.000000E+00
     1     5    55  -0.146000E+01  -0.490939E+00   0.431809E+01   0.000000E+00
 
 
 SOLVING FOR HEAD 
                                                   Max.-Head-Change                         Max.-Flux-Residual
  Residual-Control   Outer-Iter.   Inner-Iter.     Column Row Layer    Maximum-Head-Change  Column Row Layer    Maximum-Flux-Residual          L2-NORM 
          0                 1           3            53    4     1      -0.5188762896E-01      53    3    1        -0.7933655551E-03      0.1128369362E-01
          0                 2           2            53    1     1       0.4022254072E-02      53    3    1         0.7912190498E-04      0.1134227730E-02
          0                 3           2            53    1     1      -0.3392137339E-03      71    4    1         0.1283502721E-04      0.1230529141E-03
          0                 4           1            53    1     1       0.2633040005E-04      71    4    1        -0.1399418677E-05      0.1144494344E-04
          0                 5           1            53    1     1      -0.1805586388E-05      70    4    1         0.1142219332E-06      0.8703584051E-06
          0                 6           1            53    1     1       0.1084771337E-06      70    4    1        -0.7545686742E-08      0.5522071192E-07

    ------------------------------------------------
       NWT REQUIRED            6 OUTER ITERATIONS 
       AND A TOTAL OF         10 INNER ITERATIONS.
    ------------------------------------------------

 NO OUTPUT CONTROL FOR STRESS PERIOD   20   TIME STEP   29
 
 WELLS WITH REDUCED PUMPING FOR STRESS PERIOD    20 TIME STEP    29
   LAY   ROW   COL         APPL.Q          ACT.Q        GW-HEAD       CELL-BOT
     1     3    50  -0.145999E+01  -0.571628E+00   0.478431E+01   0.000000E+00
     1     5    55  -0.145999E+01  -0.489037E+00   0.430797E+01   0.000000E+00
 
 
 SOLVING FOR HEAD 
                                                   Max.-Head-Change                         Max.-Flux-Residual
  Residual-Control   Outer-Iter.   Inner-Iter.     Column Row Layer    Maximum-Head-Change  Column Row Layer    Maximum-Flux-Residual          L2-NORM 
          0                 1           3            53    4     1      -0.5824240324E-01      53    4    1        -0.7579155817E-03      0.1144191103E-01
          0                 2           2            53    1     1       0.4453784161E-02      53    3    1         0.7487502818E-04      0.1154966288E-02
          0                 3           2            53    1     1      -0.3725085604E-03      68    4    1         0.1280134647E-04      0.1256389385E-03
          0                 4           1            53    1     1       0.2875018004E-04      75    4    1        -0.1397568475E-05      0.1173519376E-04
          0                 5           1            53    1     1      -0.1963976608E-05      74    4    1         0.1165191161E-06      0.8932448170E-06
          0                 6           1            53    1     1       0.1181048815E-06      74    4    1        -0.7779528133E-08      0.5680078986E-07

    ------------------------------------------------
       NWT REQUIRED            6 OUTER ITERATIONS 
       AND A TOTAL OF         10 INNER ITERATIONS.
    ------------------------------------------------

 OUTPUT CONTROL FOR STRESS PERIOD   20   TIME STEP   30
    PRINT HEAD FOR ALL LAYERS
    SAVE HEAD FOR ALL LAYERS
    PRINT BUDGET
    SAVE BUDGET
 
 WELLS WITH REDUCED PUMPING FOR STRESS PERIOD    20 TIME STEP    30
   LAY   ROW   COL         APPL.Q          ACT.Q        GW-HEAD       CELL-BOT
     1     3    50  -0.145999E+01  -0.569627E+00   0.477385E+01   0.000000E+00
     1     5    55  -0.145999E+01  -0.486909E+00   0.429660E+01   0.000000E+00

            WELLS   PERIOD   20   STEP  30
 WELL      1   LAYER   1   ROW     3   COL    50   RATE   -0.569627    
 WELL      2   LAYER   1   ROW     5   COL    55   RATE   -0.486909    
 

  HEAD DEP BOUNDS   PERIOD   20   STEP    30
 BOUNDARY      1   LAYER   1   ROW     1   COL   100   RATE   -1.561178E-02
 BOUNDARY      2   LAYER   1   ROW     2   COL   100   RATE   -1.581798E-02
 BOUNDARY      3   LAYER   1   ROW     3   COL   100   RATE   -1.635367E-02
 BOUNDARY      4   LAYER   1   ROW     4   COL   100   RATE   -1.966436E-02
 BOUNDARY      5   LAYER   1   ROW     5   COL   100   RATE   -1.635367E-02
 BOUNDARY      6   LAYER   1   ROW     6   COL   100   RATE   -1.581798E-02
 BOUNDARY      7   LAYER   1   ROW     7   COL   100   RATE   -1.561178E-02



 STREAM LISTING     PERIOD     20   STEP       30

 LAYER ROW COL. STREAM  RCH.   FLOW INTO    STREAM     FLOW OUT OF   OVRLND.    DIRECT     STREAM      STREAM      STREAM     STREAM  STREAMBED   FLOW TO   CHNG. UNSAT. 
                SEG.NO.  NO.   STRM. RCH.    LOSS       STRM. RCH.   RUNOFF     PRECIP       ET         HEAD        DEPTH      WIDTH  CONDCTNC.   WAT. TAB.

   1    4    1     1     1    3.5560E+01  8.8938E-03   3.5551E+01  0.000E+00  0.000E+00  0.000E+00  1.44127E+02  4.277E+00  9.106E+00  1.862E-03  8.871E-03  2.256E-05
   1    4    2     1     2    3.5551E+01  8.8917E-03   3.5542E+01  0.000E+00  0.000E+00  0.000E+00  1.43826E+02  4.276E+00  9.104E+00  1.862E-03  8.869E-03  2.267E-05
   1    4    3     1     3    3.5542E+01  8.8897E-03   3.5533E+01  0.000E+00  0.000E+00  0.000E+00  1.43526E+02  4.276E+00  9.103E+00  1.861E-03  8.867E-03  2.290E-05
   1    4    4     1     4    3.5533E+01  8.8877E-03   3.5524E+01  0.000E+00  0.000E+00  0.000E+00  1.43225E+02  4.275E+00  9.101E+00  1.861E-03  8.864E-03  2.326E-05
   1    4    5     1     5    3.5524E+01  8.8857E-03   3.5516E+01  0.000E+00  0.000E+00  0.000E+00  1.42925E+02  4.275E+00  9.099E+00  1.861E-03  8.862E-03  2.373E-05
   1    4    6     1     6    3.5516E+01  8.8837E-03   3.5507E+01  0.000E+00  0.000E+00  0.000E+00  1.42624E+02  4.274E+00  9.098E+00  1.861E-03  8.859E-03  2.433E-05
   1    4    7     1     7    3.5507E+01  8.8816E-03   3.5498E+01  0.000E+00  0.000E+00  0.000E+00  1.42324E+02  4.274E+00  9.096E+00  1.860E-03  8.857E-03  2.506E-05
   1    4    8     1     8    3.5498E+01  8.8796E-03   3.5489E+01  0.000E+00  0.000E+00  0.000E+00  1.42024E+02  4.274E+00  9.094E+00  1.860E-03  8.854E-03  2.590E-05
   1    4    9     1     9    3.5489E+01  8.8776E-03   3.5480E+01  0.000E+00  0.000E+00  0.000E+00  1.41723E+02  4.273E+00  9.093E+00  1.860E-03  8.851E-03  2.685E-05
   1    4   10     1    10    3.5480E+01  8.8756E-03   3.5471E+01  0.000E+00  0.000E+00  0.000E+00  1.41423E+02  4.273E+00  9.091E+00  1.860E-03  8.848E-03  2.792E-05
   1    4   11     1    11    3.5471E+01  8.8736E-03   3.5462E+01  0.000E+00  0.000E+00  0.000E+00  1.41122E+02  4.272E+00  9.089E+00  1.859E-03  8.844E-03  2.908E-05
   1    4   12     1    12    3.5462E+01  8.8716E-03   3.5453E+01  0.000E+00  0.000E+00  0.000E+00  1.40822E+02  4.272E+00  9.088E+00  1.859E-03  8.841E-03  3.032E-05
   1    4   13     1    13    3.5453E+01  8.8695E-03   3.5445E+01  0.000E+00  0.000E+00  0.000E+00  1.40522E+02  4.272E+00  9.086E+00  1.859E-03  8.838E-03  3.163E-05
   1    4   14     1    14    3.5445E+01  8.8675E-03   3.5436E+01  0.000E+00  0.000E+00  0.000E+00  1.40221E+02  4.271E+00  9.084E+00  1.859E-03  8.835E-03  3.301E-05
   1    4   15     1    15    3.5436E+01  8.8655E-03   3.5427E+01  0.000E+00  0.000E+00  0.000E+00  1.39921E+02  4.271E+00  9.083E+00  1.858E-03  8.831E-03  3.444E-05
   1    4   16     1    16    3.5427E+01  8.8635E-03   3.5418E+01  0.000E+00  0.000E+00  0.000E+00  1.39620E+02  4.270E+00  9.081E+00  1.858E-03  8.828E-03  3.589E-05
   1    4   17     1    17    3.5418E+01  8.8615E-03   3.5409E+01  0.000E+00  0.000E+00  0.000E+00  1.39320E+02  4.270E+00  9.079E+00  1.858E-03  8.824E-03  3.737E-05
   1    4   18     1    18    3.5409E+01  8.8595E-03   3.5400E+01  0.000E+00  0.000E+00  0.000E+00  1.39019E+02  4.269E+00  9.078E+00  1.858E-03  8.821E-03  3.885E-05
   1    4   19     1    19    3.5400E+01  8.8574E-03   3.5391E+01  0.000E+00  0.000E+00  0.000E+00  1.38719E+02  4.269E+00  9.076E+00  1.857E-03  8.817E-03  4.031E-05
   1    4   20     1    20    3.5391E+01  8.8554E-03   3.5383E+01  0.000E+00  0.000E+00  0.000E+00  1.38419E+02  4.269E+00  9.074E+00  1.857E-03  8.814E-03  4.175E-05
   1    4   21     1    21    3.5383E+01  8.8534E-03   3.5374E+01  0.000E+00  0.000E+00  0.000E+00  1.38118E+02  4.268E+00  9.073E+00  1.857E-03  8.810E-03  4.314E-05
   1    4   22     1    22    3.5374E+01  8.8514E-03   3.5365E+01  0.000E+00  0.000E+00  0.000E+00  1.37818E+02  4.268E+00  9.071E+00  1.857E-03  8.807E-03  4.447E-05
   1    4   23     1    23    3.5365E+01  8.8494E-03   3.5356E+01  0.000E+00  0.000E+00  0.000E+00  1.37517E+02  4.267E+00  9.069E+00  1.856E-03  8.804E-03  4.574E-05
   1    4   24     1    24    3.5356E+01  8.8474E-03   3.5347E+01  0.000E+00  0.000E+00  0.000E+00  1.37217E+02  4.267E+00  9.068E+00  1.856E-03  8.800E-03  4.694E-05
   1    4   25     1    25    3.5347E+01  8.8454E-03   3.5338E+01  0.000E+00  0.000E+00  0.000E+00  1.36917E+02  4.267E+00  9.066E+00  1.856E-03  8.797E-03  4.803E-05
   1    4   26     1    26    3.5338E+01  8.8433E-03   3.5329E+01  0.000E+00  0.000E+00  0.000E+00  1.36616E+02  4.266E+00  9.064E+00  1.855E-03  8.794E-03  4.902E-05
   1    4   27     1    27    3.5329E+01  8.8413E-03   3.5321E+01  0.000E+00  0.000E+00  0.000E+00  1.36316E+02  4.266E+00  9.063E+00  1.855E-03  8.791E-03  4.991E-05
   1    4   28     1    28    3.5321E+01  8.8393E-03   3.5312E+01  0.000E+00  0.000E+00  0.000E+00  1.36015E+02  4.265E+00  9.061E+00  1.855E-03  8.789E-03  5.070E-05
   1    4   29     1    29    3.5312E+01  8.8373E-03   3.5303E+01  0.000E+00  0.000E+00  0.000E+00  1.35715E+02  4.265E+00  9.059E+00  1.855E-03  8.786E-03  5.140E-05
   1    4   30     1    30    3.5303E+01  8.8353E-03   3.5294E+01  0.000E+00  0.000E+00  0.000E+00  1.35414E+02  4.264E+00  9.058E+00  1.854E-03  8.783E-03  5.197E-05
   1    4   31     1    31    3.5294E+01  8.8333E-03   3.5285E+01  0.000E+00  0.000E+00  0.000E+00  1.35114E+02  4.264E+00  9.056E+00  1.854E-03  8.781E-03  5.245E-05
   1    4   32     1    32    3.5285E+01  8.8313E-03   3.5276E+01  0.000E+00  0.000E+00  0.000E+00  1.34814E+02  4.264E+00  9.054E+00  1.854E-03  8.778E-03  5.335E-05
   1    4   33     1    33    3.5276E+01  8.8293E-03   3.5268E+01  0.000E+00  0.000E+00  0.000E+00  1.34513E+02  4.263E+00  9.053E+00  1.854E-03  8.775E-03  5.436E-05
   1    4   34     1    34    3.5268E+01  8.8272E-03   3.5259E+01  0.000E+00  0.000E+00  0.000E+00  1.34213E+02  4.263E+00  9.051E+00  1.853E-03  8.772E-03  5.511E-05
   1    4   35     1    35    3.5259E+01  8.8252E-03   3.5250E+01  0.000E+00  0.000E+00  0.000E+00  1.33912E+02  4.262E+00  9.050E+00  1.853E-03  8.815E-03  1.012E-05
   1    4   36     1    36    3.5250E+01  8.8232E-03   3.5241E+01  0.000E+00  0.000E+00  0.000E+00  1.33612E+02  4.262E+00  9.048E+00  1.853E-03  8.920E-03 -9.668E-05
   1    4   37     1    37    3.5241E+01  8.8212E-03   3.5232E+01  0.000E+00  0.000E+00  0.000E+00  1.33312E+02  4.262E+00  9.046E+00  1.853E-03  9.032E-03 -2.109E-04
   1    4   38     1    38    3.5232E+01  8.8192E-03   3.5223E+01  0.000E+00  0.000E+00  0.000E+00  1.33011E+02  4.261E+00  9.045E+00  1.852E-03  9.090E-03 -2.712E-04
   1    4   39     1    39    3.5223E+01  8.8172E-03   3.5215E+01  0.000E+00  0.000E+00  0.000E+00  1.32711E+02  4.261E+00  9.043E+00  1.852E-03  9.088E-03 -2.707E-04
   1    4   40     1    40    3.5215E+01  8.8152E-03   3.5206E+01  0.000E+00  0.000E+00  0.000E+00  1.32410E+02  4.260E+00  9.041E+00  1.852E-03  9.085E-03 -2.694E-04
   1    4   41     1    41    3.5206E+01  8.8132E-03   3.5197E+01  0.000E+00  0.000E+00  0.000E+00  1.32110E+02  4.260E+00  9.040E+00  1.852E-03  9.080E-03 -2.664E-04
   1    4   42     1    42    3.5197E+01  8.8112E-03   3.5188E+01  0.000E+00  0.000E+00  0.000E+00  1.31809E+02  4.259E+00  9.038E+00  1.851E-03  9.074E-03 -2.626E-04
   1    4   43     1    43    3.5188E+01  8.8092E-03   3.5179E+01  0.000E+00  0.000E+00  0.000E+00  1.31509E+02  4.259E+00  9.036E+00  1.851E-03  9.123E-03 -3.133E-04
   1    4   44     1    44    3.5179E+01  8.8072E-03   3.5171E+01  0.000E+00  0.000E+00  0.000E+00  1.31209E+02  4.259E+00  9.035E+00  1.851E-03  9.293E-03 -4.863E-04
   1    4   45     1    45    3.5171E+01  8.8052E-03   3.5162E+01  0.000E+00  0.000E+00  0.000E+00  1.30908E+02  4.258E+00  9.033E+00  1.851E-03  9.455E-03 -6.499E-04
   1    4   46     1    46    3.5162E+01  8.8031E-03   3.5153E+01  0.000E+00  0.000E+00  0.000E+00  1.30608E+02  4.258E+00  9.031E+00  1.850E-03  9.449E-03 -6.457E-04
   1    4   47     1    47    3.5153E+01  8.8011E-03   3.5144E+01  0.000E+00  0.000E+00  0.000E+00  1.30307E+02  4.257E+00  9.030E+00  1.850E-03  9.440E-03 -6.389E-04
   1    4   48     1    48    3.5144E+01  8.7991E-03   3.5135E+01  0.000E+00  0.000E+00  0.000E+00  1.30007E+02  4.257E+00  9.028E+00  1.850E-03  9.564E-03 -7.646E-04
   1    4   49     1    49    3.5135E+01  8.7971E-03   3.5127E+01  0.000E+00  0.000E+00  0.000E+00  1.29707E+02  4.257E+00  9.026E+00  1.849E-03  9.886E-03 -1.089E-03
   1    4   50     1    50    3.5127E+01  8.7951E-03   3.5118E+01  0.000E+00  0.000E+00  0.000E+00  1.29406E+02  4.256E+00  9.025E+00  1.849E-03  9.904E-03 -1.109E-03
   1    4   51     1    51    3.5118E+01  8.7931E-03   3.5109E+01  0.000E+00  0.000E+00  0.000E+00  1.29106E+02  4.256E+00  9.023E+00  1.849E-03  9.843E-03 -1.049E-03
   1    4   52     1    52    3.5109E+01  8.7911E-03   3.5100E+01  0.000E+00  0.000E+00  0.000E+00  1.28805E+02  4.255E+00  9.021E+00  1.849E-03  9.822E-03 -1.031E-03
   1    4   53     1    53    3.5100E+01  8.7891E-03   3.5091E+01  0.000E+00  0.000E+00  0.000E+00  1.28505E+02  4.255E+00  9.020E+00  1.848E-03  9.817E-03 -1.028E-03
   1    4   54     1    54    3.5091E+01  8.7871E-03   3.5083E+01  0.000E+00  0.000E+00  0.000E+00  1.28204E+02  4.254E+00  9.018E+00  1.848E-03  9.830E-03 -1.042E-03
   1    4   55     1    55    3.5083E+01  8.7851E-03   3.5074E+01  0.000E+00  0.000E+00  0.000E+00  1.27904E+02  4.254E+00  9.016E+00  1.848E-03  9.881E-03 -1.096E-03
   1    4   56     1    56    3.5074E+01  8.7831E-03   3.5065E+01  0.000E+00  0.000E+00  0.000E+00  1.27604E+02  4.254E+00  9.015E+00  1.848E-03  9.853E-03 -1.070E-03
   1    4   57     1    57    3.5065E+01  8.7811E-03   3.5056E+01  0.000E+00  0.000E+00  0.000E+00  1.27303E+02  4.253E+00  9.013E+00  1.847E-03  9.569E-03 -7.882E-04
   1    4   58     1    58    3.5056E+01  8.7791E-03   3.5047E+01  0.000E+00  0.000E+00  0.000E+00  1.27003E+02  4.253E+00  9.011E+00  1.847E-03  9.388E-03 -6.094E-04
   1    4   59     1    59    3.5047E+01  8.7771E-03   3.5039E+01  0.000E+00  0.000E+00  0.000E+00  1.26702E+02  4.252E+00  9.010E+00  1.847E-03  9.389E-03 -6.117E-04
   1    4   60     1    60    3.5039E+01  8.7751E-03   3.5030E+01  0.000E+00  0.000E+00  0.000E+00  1.26402E+02  4.252E+00  9.008E+00  1.847E-03  9.388E-03 -6.128E-04
   1    4   61     1    61    3.5030E+01  8.7731E-03   3.5021E+01  0.000E+00  0.000E+00  0.000E+00  1.26102E+02  4.252E+00  9.006E+00  1.846E-03  9.309E-03 -5.360E-04
   1    4   62     1    62    3.5021E+01  8.7711E-03   3.5012E+01  0.000E+00  0.000E+00  0.000E+00  1.25801E+02  4.251E+00  9.005E+00  1.846E-03  9.132E-03 -3.611E-04
   1    4   63     1    63    3.5012E+01  8.7691E-03   3.5004E+01  0.000E+00  0.000E+00  0.000E+00  1.25501E+02  4.251E+00  9.003E+00  1.846E-03  8.986E-03 -2.173E-04
   1    4   64     1    64    3.5004E+01  8.7671E-03   3.4995E+01  0.000E+00  0.000E+00  0.000E+00  1.25200E+02  4.250E+00  9.001E+00  1.846E-03  8.985E-03 -2.179E-04
   1    4   65     1    65    3.4995E+01  8.7651E-03   3.4986E+01  0.000E+00  0.000E+00  0.000E+00  1.24900E+02  4.250E+00  9.000E+00  1.845E-03  8.984E-03 -2.188E-04
   1    4   66     1    66    3.4986E+01  8.7631E-03   3.4977E+01  0.000E+00  0.000E+00  0.000E+00  1.24600E+02  4.250E+00  8.998E+00  1.845E-03  8.982E-03 -2.187E-04
   1    4   67     1    67    3.4977E+01  8.7611E-03   3.4969E+01  0.000E+00  0.000E+00  0.000E+00  1.24299E+02  4.249E+00  8.996E+00  1.845E-03  8.979E-03 -2.177E-04
   1    4   68     1    68    3.4969E+01  8.7591E-03   3.4960E+01  0.000E+00  0.000E+00  0.000E+00  1.23999E+02  4.249E+00  8.995E+00  1.845E-03  8.976E-03 -2.165E-04
   1    4   69     1    69    3.4960E+01  8.7571E-03   3.4951E+01  0.000E+00  0.000E+00  0.000E+00  1.23698E+02  4.248E+00  8.993E+00  1.844E-03  8.923E-03 -1.661E-04
   1    4   70     1    70    3.4951E+01  8.7551E-03   3.4942E+01  0.000E+00  0.000E+00  0.000E+00  1.23398E+02  4.248E+00  8.991E+00  1.844E-03  8.814E-03 -5.910E-05
   1    4   71     1    71    3.4942E+01  8.7531E-03   3.4934E+01  0.000E+00  0.000E+00  0.000E+00  1.23097E+02  4.247E+00  8.990E+00  1.844E-03  8.712E-03  4.073E-05
   1    4   72     1    72    3.4934E+01  8.7511E-03   3.4925E+01  0.000E+00  0.000E+00  0.000E+00  1.22797E+02  4.247E+00  8.988E+00  1.843E-03  8.651E-03  1.006E-04
   1    4   73     1    73    3.4925E+01  8.7491E-03   3.4916E+01  0.000E+00  0.000E+00  0.000E+00  1.22497E+02  4.247E+00  8.986E+00  1.843E-03  8.650E-03  9.917E-05
   1    4   74     1    74    3.4916E+01  8.7471E-03   3.4907E+01  0.000E+00  0.000E+00  0.000E+00  1.22196E+02  4.246E+00  8.985E+00  1.843E-03  8.650E-03  9.714E-05
   1    4   75     1    75    3.4907E+01  8.7451E-03   3.4899E+01  0.000E+00  0.000E+00  0.000E+00  1.21896E+02  4.246E+00  8.983E+00  1.843E-03  8.650E-03  9.478E-05
   1    4   76     1    76    3.4899E+01  8.7431E-03   3.4890E+01  0.000E+00  0.000E+00  0.000E+00  1.21595E+02  4.245E+00  8.981E+00  1.842E-03  8.650E-03  9.270E-05
   1    4   77     1    77    3.4890E+01  8.7411E-03   3.4881E+01  0.000E+00  0.000E+00  0.000E+00  1.21295E+02  4.245E+00  8.980E+00  1.842E-03  8.651E-03  9.044E-05
   1    4   78     1    78    3.4881E+01  8.7391E-03   3.4872E+01  0.000E+00  0.000E+00  0.000E+00  1.20995E+02  4.245E+00  8.978E+00  1.842E-03  8.651E-03  8.789E-05
   1    4   79     1    79    3.4872E+01  8.7371E-03   3.4864E+01  0.000E+00  0.000E+00  0.000E+00  1.20694E+02  4.244E+00  8.976E+00  1.842E-03  8.652E-03  8.514E-05
   1    4   80     1    80    3.4864E+01  8.7351E-03   3.4855E+01  0.000E+00  0.000E+00  0.000E+00  1.20394E+02  4.244E+00  8.975E+00  1.841E-03  8.653E-03  8.226E-05
   1    4   81     1    81    3.4855E+01  8.7331E-03   3.4846E+01  0.000E+00  0.000E+00  0.000E+00  1.20093E+02  4.243E+00  8.973E+00  1.841E-03  8.654E-03  7.930E-05
   1    4   82     1    82    3.4846E+01  8.7311E-03   3.4837E+01  0.000E+00  0.000E+00  0.000E+00  1.19793E+02  4.243E+00  8.971E+00  1.841E-03  8.655E-03  7.630E-05
   1    4   83     1    83    3.4837E+01  8.7292E-03   3.4829E+01  0.000E+00  0.000E+00  0.000E+00  1.19492E+02  4.242E+00  8.970E+00  1.841E-03  8.656E-03  7.332E-05
   1    4   84     1    84    3.4829E+01  8.7272E-03   3.4820E+01  0.000E+00  0.000E+00  0.000E+00  1.19192E+02  4.242E+00  8.968E+00  1.840E-03  8.657E-03  7.042E-05
   1    4   85     1    85    3.4820E+01  8.7252E-03   3.4811E+01  0.000E+00  0.000E+00  0.000E+00  1.18892E+02  4.242E+00  8.966E+00  1.840E-03  8.658E-03  6.766E-05
   1    4   86     1    86    3.4811E+01  8.7232E-03   3.4802E+01  0.000E+00  0.000E+00  0.000E+00  1.18591E+02  4.241E+00  8.965E+00  1.840E-03  8.658E-03  6.509E-05
   1    4   87     1    87    3.4802E+01  8.7212E-03   3.4794E+01  0.000E+00  0.000E+00  0.000E+00  1.18291E+02  4.241E+00  8.963E+00  1.840E-03  8.658E-03  6.271E-05
   1    4   88     1    88    3.4794E+01  8.7192E-03   3.4785E+01  0.000E+00  0.000E+00  0.000E+00  1.17990E+02  4.240E+00  8.962E+00  1.839E-03  8.659E-03  6.053E-05
   1    4   89     1    89    3.4785E+01  8.7172E-03   3.4776E+01  0.000E+00  0.000E+00  0.000E+00  1.17690E+02  4.240E+00  8.960E+00  1.839E-03  8.659E-03  5.848E-05
   1    4   90     1    90    3.4776E+01  8.7152E-03   3.4768E+01  0.000E+00  0.000E+00  0.000E+00  1.17390E+02  4.240E+00  8.958E+00  1.839E-03  8.659E-03  5.648E-05
   1    4   91     1    91    3.4768E+01  8.7132E-03   3.4759E+01  0.000E+00  0.000E+00  0.000E+00  1.17089E+02  4.239E+00  8.957E+00  1.839E-03  8.659E-03  5.439E-05
   1    4   92     1    92    3.4759E+01  8.7112E-03   3.4750E+01  0.000E+00  0.000E+00  0.000E+00  1.16789E+02  4.239E+00  8.955E+00  1.838E-03  8.659E-03  5.203E-05
   1    4   93     1    93    3.4750E+01  8.7092E-03   3.4741E+01  0.000E+00  0.000E+00  0.000E+00  1.16488E+02  4.238E+00  8.953E+00  1.838E-03  8.660E-03  4.917E-05
   1    4   94     1    94    3.4741E+01  8.7072E-03   3.4733E+01  0.000E+00  0.000E+00  0.000E+00  1.16188E+02  4.238E+00  8.952E+00  1.838E-03  8.662E-03  4.557E-05
   1    4   95     1    95    3.4733E+01  8.7053E-03   3.4724E+01  0.000E+00  0.000E+00  0.000E+00  1.15887E+02  4.237E+00  8.950E+00  1.838E-03  8.664E-03  4.098E-05
   1    4   96     1    96    3.4724E+01  8.7033E-03   3.4715E+01  0.000E+00  0.000E+00  0.000E+00  1.15587E+02  4.237E+00  8.948E+00  1.837E-03  8.668E-03  3.520E-05
   1    4   97     1    97    3.4715E+01  8.7013E-03   3.4707E+01  0.000E+00  0.000E+00  0.000E+00  1.15287E+02  4.237E+00  8.947E+00  1.837E-03  8.673E-03  2.810E-05
   1    4   98     1    98    3.4707E+01  8.6993E-03   3.4698E+01  0.000E+00  0.000E+00  0.000E+00  1.14986E+02  4.236E+00  8.945E+00  1.837E-03  8.680E-03  1.972E-05
   1    4   99     1    99    3.4698E+01  8.6973E-03   3.4689E+01  0.000E+00  0.000E+00  0.000E+00  1.14686E+02  4.236E+00  8.943E+00  1.836E-03  8.687E-03  1.025E-05
   1    4  100     1   100    3.4689E+01  8.6953E-03   3.4681E+01  0.000E+00  0.000E+00  0.000E+00  1.14385E+02  4.235E+00  8.942E+00  1.836E-03  0.000E+00  0.000E+00



1
  VOLUMETRIC BUDGET FOR UNSATURATED ZONE BENEATH STREAMS AT END OF TIME STEP    30 STRESS PERIOD  20
  ------------------------------------------------------------------------------------------------

    CUMULATIVE VOLUMES             L**3    RATES FOR THIS TIME STEP         L**3/T
    ------------------                     ------------------------


          STREAM LOSS =     25252172.0000            STREAM LOSS =            0.8794
    CHANGE IN STORAGE =      2724506.2500      CHANGE IN STORAGE =       -1.5532E-02
       RECHARGE TO GW =     22532566.0000         RECHARGE TO GW =            0.8950

             TOTAL IN =     25252172.0000               TOTAL IN =            0.8950

            TOTAL OUT =     25257072.0000              TOTAL OUT =            0.8950

             IN - OUT =        -4900.0000               IN - OUT =        1.1921E-07

  PERCENT DISCREPANCY =           -0.00      PERCENT DISCREPANCY =             0.00



1
              HEAD IN LAYER 1 AT END OF TIME STEP 30 IN STRESS PERIOD 20
  ---------------------------------------------------------------------------

          1      2      3      4      5      6      7      8      9     10
         11     12     13     14     15     16     17     18     19     20
         21     22     23     24     25     26     27     28     29     30
         31     32     33     34     35     36     37     38     39     40
         41     42     43     44     45     46     47     48     49     50
         51     52     53     54     55     56     57     58     59     60
         61     62     63     64     65     66     67     68     69     70
         71     72     73     74     75     76     77     78     79     80
         81     82     83     84     85     86     87     88     89     90
         91     92     93     94     95     96     97     98     99    100
 .........................................................................
   1  103.3 103.2 103.2 103.0 102.9 102.7 102.4 102.1 101.8 101.5
      101.0 100.6 100.1 99.5 98.9 98.3 97.6 96.9 96.1 95.3
      94.4 93.4 92.4 91.3 90.2 89.0 87.7 86.4 85.0 83.5
      81.9 80.2 78.5 76.6 74.6 72.6 70.4 68.0 65.5 62.9
      60.0 57.0 53.7 50.1 46.1 41.7 36.6 30.6 23.2 14.8
      14.3 15.0 15.4 16.1 18.2 23.1 28.4 33.3 37.6 41.4
      44.8 47.9 50.7 53.3 55.7 57.9 59.9 61.8 63.5 65.1
      66.6 67.9 69.2 70.4 71.4 72.4 73.3 74.1 74.8 75.5
      76.1 76.6 77.0 77.4 77.7 78.0 78.1 78.2 78.3 78.3
      78.2 78.1 77.9 77.7 77.4 77.0 76.6 76.1 75.6 75.0
   2  103.3 103.2 103.2 103.0 102.9 102.7 102.4 102.2 101.8 101.5
      101.0 100.6 100.1 99.5 99.0 98.3 97.6 96.9 96.1 95.3
      94.4 93.4 92.4 91.3 90.2 89.0 87.7 86.4 85.0 83.5
      81.9 80.2 78.5 76.6 74.7 72.6 70.4 68.0 65.6 62.9
      60.1 57.0 53.7 50.1 46.1 41.7 36.6 30.6 22.9 12.3
      14.0 15.0 15.4 15.7 17.3 22.8 28.3 33.2 37.6 41.4
      44.8 47.9 50.8 53.3 55.7 57.9 59.9 61.8 63.5 65.1
      66.6 68.0 69.2 70.4 71.4 72.4 73.3 74.1 74.9 75.5
      76.1 76.6 77.0 77.4 77.7 78.0 78.1 78.3 78.3 78.3
      78.2 78.1 77.9 77.7 77.4 77.0 76.6 76.1 75.6 75.0
   3  103.3 103.3 103.2 103.1 102.9 102.7 102.4 102.2 101.8 101.5
      101.1 100.6 100.1 99.6 99.0 98.3 97.6 96.9 96.1 95.3
      94.4 93.4 92.4 91.3 90.2 89.0 87.7 86.4 85.0 83.5
      81.9 80.3 78.5 76.6 74.7 72.6 70.4 68.1 65.6 62.9
      60.1 57.0 53.7 50.1 46.2 41.7 36.7 30.7 22.6 4.8
      13.9 15.2 15.3 15.0 15.3 22.1 28.2 33.2 37.6 41.4
      44.9 48.0 50.8 53.4 55.7 57.9 59.9 61.8 63.5 65.1
      66.6 68.0 69.2 70.4 71.5 72.4 73.3 74.1 74.9 75.5
      76.1 76.6 77.1 77.4 77.7 78.0 78.2 78.3 78.3 78.3
      78.3 78.1 77.9 77.7 77.4 77.0 76.6 76.1 75.6 75.0
   4  103.3 103.3 103.2 103.1 102.9 102.7 102.5 102.2 101.9 101.5
      101.1 100.6 100.1 99.6 99.0 98.3 97.7 96.9 96.1 95.3
      94.4 93.4 92.4 91.4 90.2 89.0 87.8 86.4 85.0 83.5
      81.9 80.3 78.5 76.7 74.7 72.6 70.4 68.1 65.6 63.0
      60.1 57.1 53.8 50.2 46.2 41.8 36.8 30.9 23.5 12.7
      14.9 15.5 15.3 14.2 11.7 21.4 28.0 33.2 37.6 41.5
      44.9 48.0 50.8 53.4 55.8 58.0 60.0 61.8 63.6 65.2
      66.6 68.0 69.3 70.4 71.5 72.5 73.4 74.2 74.9 75.6
      76.1 76.6 77.1 77.5 77.8 78.0 78.2 78.3 78.4 78.3
      78.3 78.2 78.0 77.7 77.4 77.1 76.6 76.2 75.6 75.0
   5  103.3 103.3 103.2 103.1 102.9 102.7 102.4 102.2 101.8 101.5
      101.1 100.6 100.1 99.6 99.0 98.3 97.6 96.9 96.1 95.3
      94.4 93.4 92.4 91.3 90.2 89.0 87.7 86.4 85.0 83.5
      81.9 80.3 78.5 76.6 74.7 72.6 70.4 68.1 65.6 62.9
      60.1 57.0 53.7 50.1 46.2 41.8 36.8 31.1 24.3 16.6
      15.7 15.6 15.0 13.3 4.3 20.5 27.8 33.1 37.6 41.4
      44.9 48.0 50.8 53.4 55.7 57.9 59.9 61.8 63.5 65.1
      66.6 68.0 69.2 70.4 71.5 72.4 73.3 74.1 74.9 75.5
      76.1 76.6 77.1 77.4 77.7 78.0 78.2 78.3 78.3 78.3
      78.3 78.1 77.9 77.7 77.4 77.0 76.6 76.1 75.6 75.0
   6  103.3 103.2 103.2 103.0 102.9 102.7 102.4 102.2 101.8 101.5
      101.0 100.6 100.1 99.5 99.0 98.3 97.6 96.9 96.1 95.3
      94.4 93.4 92.4 91.3 90.2 89.0 87.7 86.4 85.0 83.5
      81.9 80.2 78.5 76.6 74.7 72.6 70.4 68.0 65.6 62.9
      60.1 57.0 53.7 50.1 46.1 41.8 36.8 31.3 25.0 18.8
      16.5 15.7 14.9 13.4 11.2 20.8 27.7 33.0 37.5 41.4
      44.8 47.9 50.8 53.3 55.7 57.9 59.9 61.8 63.5 65.1
      66.6 68.0 69.2 70.4 71.4 72.4 73.3 74.1 74.9 75.5
      76.1 76.6 77.0 77.4 77.7 78.0 78.1 78.3 78.3 78.3
      78.2 78.1 77.9 77.7 77.4 77.0 76.6 76.1 75.6 75.0
   7  103.3 103.2 103.2 103.0 102.9 102.7 102.4 102.1 101.8 101.5
      101.0 100.6 100.1 99.5 98.9 98.3 97.6 96.9 96.1 95.3
      94.4 93.4 92.4 91.3 90.2 89.0 87.7 86.4 85.0 83.5
      81.9 80.2 78.5 76.6 74.6 72.6 70.4 68.0 65.5 62.9
      60.0 57.0 53.7 50.1 46.1 41.8 36.9 31.4 25.4 19.7
      17.0 15.8 14.9 13.7 13.6 21.0 27.6 33.0 37.5 41.4
      44.8 47.9 50.7 53.3 55.7 57.9 59.9 61.8 63.5 65.1
      66.6 67.9 69.2 70.4 71.4 72.4 73.3 74.1 74.8 75.5
      76.1 76.6 77.0 77.4 77.7 78.0 78.1 78.2 78.3 78.3
      78.2 78.1 77.9 77.7 77.4 77.0 76.6 76.1 75.6 75.0

 HEAD WILL BE SAVED ON UNIT   51 AT END OF TIME STEP   30, STRESS PERIOD   20
1
  VOLUMETRIC BUDGET FOR ENTIRE MODEL AT END OF TIME STEP   30, STRESS PERIOD  20
  ------------------------------------------------------------------------------

     CUMULATIVE VOLUMES      L**3       RATES FOR THIS TIME STEP      L**3/T
     ------------------                 ------------------------

           IN:                                      IN:
           ---                                      ---
             STORAGE     =    81134968.0000               STORAGE     =           0.2768
       CONSTANT HEAD     =           0.0000         CONSTANT HEAD     =           0.0000
               WELLS     =           0.0000                 WELLS     =           0.0000
     HEAD DEP BOUNDS     =           0.0000       HEAD DEP BOUNDS     =           0.0000
      STREAM LEAKAGE     =    22532504.0000        STREAM LEAKAGE     =           0.8950

                TOTAL IN =   103667472.0000                  TOTAL IN =           1.1718

          OUT:                                     OUT:
          ----                                     ----
             STORAGE     =     2981633.2500               STORAGE     =           0.0000
       CONSTANT HEAD     =           0.0000         CONSTANT HEAD     =           0.0000
               WELLS     =    85022992.0000                 WELLS     =           1.0565
     HEAD DEP BOUNDS     =    15662977.0000       HEAD DEP BOUNDS     =           0.1152
      STREAM LEAKAGE     =           0.0000        STREAM LEAKAGE     =           0.0000

               TOTAL OUT =   103667600.0000                 TOTAL OUT =           1.1718

                IN - OUT =        -128.0000                  IN - OUT =           0.0000

     PERCENT DISCREPANCY =          -0.00         PERCENT DISCREPANCY =           0.00






         TIME SUMMARY AT END OF TIME STEP   30 IN STRESS PERIOD   20
                    SECONDS     MINUTES      HOURS       DAYS        YEARS
                    -----------------------------------------------------------
   TIME STEP LENGTH 2.49961E+05  4166.0      69.434      2.8931     7.92080E-03
 STRESS PERIOD TIME 2.59200E+06  43200.      720.00      30.000     8.21355E-02
         TOTAL TIME 5.18400E+07 8.63999E+05  14400.      600.00      1.6427    
1
1
                            STRESS PERIOD NO.   21, LENGTH =   2592000.    
                            -----------------------------------------------

                              NUMBER OF TIME STEPS =    30

                               MULTIPLIER FOR DELT =     1.100

                            INITIAL TIME STEP SIZE =   15757.40    

 REUSING NON-PARAMETER WELLS FROM LAST STRESS PERIOD

      1 WELL 

 REUSING NON-PARAMETER GHB CELLS FROM LAST STRESS PERIOD

      7 GHB CELLS



 CLASSIFICATION & COUNT OF STREAM SEGMENTS BASED ON SOURCE OF INFLOW:

                HEADWATER     DIVERSION     RECEIVES TRIBUTARY FLOW
                ---------     ---------     -----------------------
                     1              0               0



                    INPUT DATA FOR EACH STREAM SEGMENT
 ---------------------------------------------------------------------------------------------

 SEGMENT    SEG.     INFLOW   OVERLAND   STREAM    STREAM   ICALC  OUTFLOW  DIVERSION PRIORITY
    NO.    LENGTH     RATE     RUNOFF      ET       PPT.    METH.  TO SEG.  FROM SEG.    NO.

      1  2.000E+04 1.263E+01 0.000E+00 0.000E+00 0.000E+00    2        0        0        0


         STREAMBED PROPERTIES AND STREAM DIMENSIONS

 SEGMENT     BED HYD. COND.      BED THICKNESS     ELEV.-TOP OF BED     WIDTH OF STREAM     DEPTH OF STREAM    STREAM ROUGHNESS
    No.     UPPER     LOWER     UPPER     LOWER     UPPER     LOWER     UPPER     LOWER     UPPER     LOWER   CHANNEL      BANK

     1  3.500E-07 3.500E-07                                                                                 3.000E-02 4.000E-02

  EIGHT POINT CROSS-SECTION DATA FOR SEGMENTS WITH ICALC = 2
    X VALUES X VALUES START FROM LEFT SIDE LOOKING DOWNSTREAM

     SEGMENT NO.        X1        X2        X3        X4        X5        X6        X7        X8
            1      0.000E+00 2.000E+00 4.000E+00 6.000E+00 8.000E+00 1.000E+01 1.200E+01 1.400E+01

    Z VALUES ARE RELATIVE TO STREAMBED ELEVATION

     SEGMENT NO.          Z1        Z2        Z3        Z4        Z5        Z6        Z7        Z8
            1      6.000E+00 4.500E+00 3.500E+00 0.000E+00 3.000E-01 3.500E+00 4.500E+00 6.000E+00



 
 SOLVING FOR HEAD 
                                                   Max.-Head-Change                         Max.-Flux-Residual
  Residual-Control   Outer-Iter.   Inner-Iter.     Column Row Layer    Maximum-Head-Change  Column Row Layer    Maximum-Flux-Residual          L2-NORM 
          0                 1           2            50    3     1       0.3597768873E-01      50    3    1         0.1547013821E-01      0.2328280869E-01
          0                 2           2            50    3     1      -0.3542974906E-02      50    3    1        -0.1553628669E-02      0.2359839272E-02
          0                 3           2            50    3     1       0.3177228609E-03      50    3    1         0.1398241251E-03      0.2115737879E-03
          0                 4           1            50    3     1      -0.2512025068E-04      50    3    1        -0.1119421984E-04      0.1697526468E-04
          0                 5           1            50    3     1       0.1755055218E-05      50    3    1         0.7874340624E-06      0.1192220821E-05
          0                 6           1            50    3     1      -0.1051353545E-06      50    3    1        -0.4768117123E-07      0.7232758250E-07

    ------------------------------------------------
       NWT REQUIRED            6 OUTER ITERATIONS 
       AND A TOTAL OF          9 INNER ITERATIONS.
    ------------------------------------------------

 NO OUTPUT CONTROL FOR STRESS PERIOD   21   TIME STEP    1
 
 WELLS WITH REDUCED PUMPING FOR STRESS PERIOD    21 TIME STEP     1
   LAY   ROW   COL         APPL.Q          ACT.Q        GW-HEAD       CELL-BOT
     1     3    50  -0.141995E+01  -0.560100E+00   0.480658E+01   0.000000E+00
     1     5    55  -0.141995E+01  -0.478717E+00   0.432490E+01   0.000000E+00
 
 
 SOLVING FOR HEAD 
                                                   Max.-Head-Change                         Max.-Flux-Residual
  Residual-Control   Outer-Iter.   Inner-Iter.     Column Row Layer    Maximum-Head-Change  Column Row Layer    Maximum-Flux-Residual          L2-NORM 
          0                 1           2            50    3     1       0.1850874154E-01      50    3    1         0.7496606522E-02      0.1505361006E-01
          0                 2           2            50    3     1      -0.1791389063E-02      50    3    1        -0.7514478058E-03      0.1541330796E-02
          0                 3           2            50    3     1       0.1620558941E-03      50    3    1         0.6768453877E-04      0.1382795464E-03
          0                 4           1            50    3     1      -0.1274689374E-04      50    3    1        -0.5414691663E-05      0.1110825226E-04
          0                 5           1            50    3     1       0.8936653449E-06      50    3    1         0.3811688581E-06      0.7795161307E-06

    ------------------------------------------------
       NWT REQUIRED            5 OUTER ITERATIONS 
       AND A TOTAL OF          8 INNER ITERATIONS.
    ------------------------------------------------

 NO OUTPUT CONTROL FOR STRESS PERIOD   21   TIME STEP    2
 
 WELLS WITH REDUCED PUMPING FOR STRESS PERIOD    21 TIME STEP     2
   LAY   ROW   COL         APPL.Q          ACT.Q        GW-HEAD       CELL-BOT
     1     3    50  -0.141991E+01  -0.563225E+00   0.482344E+01   0.000000E+00
     1     5    55  -0.141991E+01  -0.481391E+00   0.433964E+01   0.000000E+00
 
 
 SOLVING FOR HEAD 
                                                   Max.-Head-Change                         Max.-Flux-Residual
  Residual-Control   Outer-Iter.   Inner-Iter.     Column Row Layer    Maximum-Head-Change  Column Row Layer    Maximum-Flux-Residual          L2-NORM 
          0                 1           2            50    3     1       0.8978298987E-02      50    3    1         0.3420655674E-02      0.1219469450E-01
          0                 2           2            50    3     1      -0.8533829479E-03      50    3    1        -0.3424937884E-03      0.1260988286E-02
          0                 3           1            50    3     1       0.7772798465E-04      50    3    1         0.3087057031E-04      0.1138931979E-03
          0                 4           1            50    3     1      -0.6100435228E-05      50    3    1        -0.2468420371E-05      0.9158047689E-05
          0                 5           1            50    3     1       0.4276896385E-06      50    3    1         0.1737993197E-06      0.6424226055E-06

    ------------------------------------------------
       NWT REQUIRED            5 OUTER ITERATIONS 
       AND A TOTAL OF          7 INNER ITERATIONS.
    ------------------------------------------------

 NO OUTPUT CONTROL FOR STRESS PERIOD   21   TIME STEP    3
 
 WELLS WITH REDUCED PUMPING FOR STRESS PERIOD    21 TIME STEP     3
   LAY   ROW   COL         APPL.Q          ACT.Q        GW-HEAD       CELL-BOT
     1     3    50  -0.142011E+01  -0.564837E+00   0.483164E+01   0.000000E+00
     1     5    55  -0.142011E+01  -0.482770E+00   0.434679E+01   0.000000E+00
 
 
 SOLVING FOR HEAD 
                                                   Max.-Head-Change                         Max.-Flux-Residual
  Residual-Control   Outer-Iter.   Inner-Iter.     Column Row Layer    Maximum-Head-Change  Column Row Layer    Maximum-Flux-Residual          L2-NORM 
          0                 1           2            68    4     1      -0.5003370736E-02      50    3    1         0.1623090554E-02      0.1150309809E-01
          0                 2           2            53    2     1       0.4290650230E-03      50    3    1        -0.1624123873E-03      0.1193630997E-02
          0                 3           1            53    2     1      -0.3899001339E-04      50    3    1         0.1464109849E-04      0.1087735469E-03
          0                 4           1            53    2     1       0.3047340181E-05      50    3    1        -0.1171237347E-05      0.8755077081E-05
          0                 5           1            53    2     1      -0.2153781201E-06      50    3    1         0.8237995652E-07      0.6142990299E-06

    ------------------------------------------------
       NWT REQUIRED            5 OUTER ITERATIONS 
       AND A TOTAL OF          7 INNER ITERATIONS.
    ------------------------------------------------

 NO OUTPUT CONTROL FOR STRESS PERIOD   21   TIME STEP    4
 
 WELLS WITH REDUCED PUMPING FOR STRESS PERIOD    21 TIME STEP     4
   LAY   ROW   COL         APPL.Q          ACT.Q        GW-HEAD       CELL-BOT
     1     3    50  -0.141993E+01  -0.565528E+00   0.483575E+01   0.000000E+00
     1     5    55  -0.141993E+01  -0.483346E+00   0.435029E+01   0.000000E+00
 
 
 SOLVING FOR HEAD 
                                                   Max.-Head-Change                         Max.-Flux-Residual
  Residual-Control   Outer-Iter.   Inner-Iter.     Column Row Layer    Maximum-Head-Change  Column Row Layer    Maximum-Flux-Residual          L2-NORM 
          0                 1           2            60    4     1      -0.5590638181E-02      68    3    1        -0.7348778595E-03      0.1131494721E-01
          0                 2           2            53    1     1       0.4694066436E-03      68    3    1         0.7348521060E-04      0.1176955935E-02
          0                 3           1            53    2     1      -0.4254177487E-04      73    4    1         0.7139986044E-05      0.1081739718E-03
          0                 4           1            53    2     1       0.3326800948E-05      73    4    1        -0.5819405509E-06      0.8719847739E-05
          0                 5           1            53    2     1      -0.2347754070E-06      73    4    1         0.4088785666E-07      0.6121071147E-06

    ------------------------------------------------
       NWT REQUIRED            5 OUTER ITERATIONS 
       AND A TOTAL OF          7 INNER ITERATIONS.
    ------------------------------------------------

 NO OUTPUT CONTROL FOR STRESS PERIOD   21   TIME STEP    5
 
 WELLS WITH REDUCED PUMPING FOR STRESS PERIOD    21 TIME STEP     5
   LAY   ROW   COL         APPL.Q          ACT.Q        GW-HEAD       CELL-BOT
     1     3    50  -0.142010E+01  -0.565904E+00   0.483739E+01   0.000000E+00
     1     5    55  -0.142010E+01  -0.483640E+00   0.435158E+01   0.000000E+00
 
 
 SOLVING FOR HEAD 
                                                   Max.-Head-Change                         Max.-Flux-Residual
  Residual-Control   Outer-Iter.   Inner-Iter.     Column Row Layer    Maximum-Head-Change  Column Row Layer    Maximum-Flux-Residual          L2-NORM 
          0                 1           2            70    7     1      -0.5435120111E-02      68    3    1        -0.7271079541E-03      0.1126406086E-01
          0                 2           2            53    1     1       0.5144182887E-03      68    3    1         0.7270771703E-04      0.1174634325E-02
          0                 3           1            53    2     1      -0.4631603704E-04      72    4    1         0.7518108614E-05      0.1088665914E-03
          0                 4           1            53    1     1       0.3644824036E-05      73    4    1        -0.6208130365E-06      0.8794117142E-05
          0                 5           1            53    2     1      -0.2553841870E-06      73    4    1         0.4365914741E-07      0.6177405980E-06

    ------------------------------------------------
       NWT REQUIRED            5 OUTER ITERATIONS 
       AND A TOTAL OF          7 INNER ITERATIONS.
    ------------------------------------------------

 NO OUTPUT CONTROL FOR STRESS PERIOD   21   TIME STEP    6
 
 WELLS WITH REDUCED PUMPING FOR STRESS PERIOD    21 TIME STEP     6
   LAY   ROW   COL         APPL.Q          ACT.Q        GW-HEAD       CELL-BOT
     1     3    50  -0.141992E+01  -0.565975E+00   0.483816E+01   0.000000E+00
     1     5    55  -0.141992E+01  -0.483663E+00   0.435204E+01   0.000000E+00
 
 
 SOLVING FOR HEAD 
                                                   Max.-Head-Change                         Max.-Flux-Residual
  Residual-Control   Outer-Iter.   Inner-Iter.     Column Row Layer    Maximum-Head-Change  Column Row Layer    Maximum-Flux-Residual          L2-NORM 
          0                 1           2            70    1     1      -0.5979122385E-02      68    3    1        -0.7148062595E-03      0.1123305717E-01
          0                 2           2            53    1     1       0.5627446287E-03      68    3    1         0.7147775682E-04      0.1172399974E-02
          0                 3           1            53    1     1      -0.5036364383E-04      72    4    1         0.7887092606E-05      0.1095974775E-03
          0                 4           1            53    1     1       0.3988409765E-05      73    4    1        -0.6607410192E-06      0.8878740401E-05
          0                 5           1            53    1     1      -0.2783039247E-06      73    4    1         0.4657435859E-07      0.6242626974E-06

    ------------------------------------------------
       NWT REQUIRED            5 OUTER ITERATIONS 
       AND A TOTAL OF          7 INNER ITERATIONS.
    ------------------------------------------------

 NO OUTPUT CONTROL FOR STRESS PERIOD   21   TIME STEP    7
 
 WELLS WITH REDUCED PUMPING FOR STRESS PERIOD    21 TIME STEP     7
   LAY   ROW   COL         APPL.Q          ACT.Q        GW-HEAD       CELL-BOT
     1     3    50  -0.142004E+01  -0.566011E+00   0.483809E+01   0.000000E+00
     1     5    55  -0.142004E+01  -0.483648E+00   0.435173E+01   0.000000E+00
 
 
 SOLVING FOR HEAD 
                                                   Max.-Head-Change                         Max.-Flux-Residual
  Residual-Control   Outer-Iter.   Inner-Iter.     Column Row Layer    Maximum-Head-Change  Column Row Layer    Maximum-Flux-Residual          L2-NORM 
          0                 1           2            67    4     1      -0.7095549073E-02      69    3    1        -0.7086043787E-03      0.1124284748E-01
          0                 2           2            53    1     1       0.6143591007E-03      69    3    1         0.7085808624E-04      0.1170539724E-02
          0                 3           1            53    1     1      -0.5499885753E-04      72    4    1         0.8243172926E-05      0.1104016165E-03
          0                 4           1            53    1     1       0.4355636163E-05      73    4    1        -0.7013936756E-06      0.8976074236E-05
          0                 5           1            53    1     1      -0.3038713981E-06      73    4    1         0.4962053168E-07      0.6318894991E-06

    ------------------------------------------------
       NWT REQUIRED            5 OUTER ITERATIONS 
       AND A TOTAL OF          7 INNER ITERATIONS.
    ------------------------------------------------

 NO OUTPUT CONTROL FOR STRESS PERIOD   21   TIME STEP    8
 
 WELLS WITH REDUCED PUMPING FOR STRESS PERIOD    21 TIME STEP     8
   LAY   ROW   COL         APPL.Q          ACT.Q        GW-HEAD       CELL-BOT
     1     3    50  -0.142006E+01  -0.565942E+00   0.483768E+01   0.000000E+00
     1     5    55  -0.142006E+01  -0.483538E+00   0.435109E+01   0.000000E+00
 
 
 SOLVING FOR HEAD 
                                                   Max.-Head-Change                         Max.-Flux-Residual
  Residual-Control   Outer-Iter.   Inner-Iter.     Column Row Layer    Maximum-Head-Change  Column Row Layer    Maximum-Flux-Residual          L2-NORM 
          0                 1           2            53    4     1      -0.7435461503E-02      67    3    1        -0.7287680038E-03      0.1124037327E-01
          0                 2           2            53    1     1       0.6689551893E-03      67    3    1         0.7287243880E-04      0.1172830696E-02
          0                 3           1            53    1     1      -0.5993393685E-04      72    4    1         0.8585589375E-05      0.1115165957E-03
          0                 4           1            53    1     1       0.4746322681E-05      73    4    1        -0.7424482327E-06      0.9104552258E-05
          0                 5           1            53    1     1      -0.3310506214E-06      73    4    1         0.5278418946E-07      0.6419389749E-06

    ------------------------------------------------
       NWT REQUIRED            5 OUTER ITERATIONS 
       AND A TOTAL OF          7 INNER ITERATIONS.
    ------------------------------------------------

 NO OUTPUT CONTROL FOR STRESS PERIOD   21   TIME STEP    9
 
 WELLS WITH REDUCED PUMPING FOR STRESS PERIOD    21 TIME STEP     9
   LAY   ROW   COL         APPL.Q          ACT.Q        GW-HEAD       CELL-BOT
     1     3    50  -0.141994E+01  -0.565803E+00   0.483719E+01   0.000000E+00
     1     5    55  -0.141994E+01  -0.483363E+00   0.435036E+01   0.000000E+00
 
 
 SOLVING FOR HEAD 
                                                   Max.-Head-Change                         Max.-Flux-Residual
  Residual-Control   Outer-Iter.   Inner-Iter.     Column Row Layer    Maximum-Head-Change  Column Row Layer    Maximum-Flux-Residual          L2-NORM 
          0                 1           2            53    4     1      -0.9807141713E-02      67    3    1        -0.7161765271E-03      0.1129083970E-01
          0                 2           2            69    1     1       0.7302635819E-03      53    4    1        -0.7218616303E-04      0.1174766302E-02
          0                 3           1            53    1     1      -0.6542372590E-04      72    4    1         0.8913561011E-05      0.1124919606E-03
          0                 4           1            53    1     1       0.5179216442E-05      72    4    1        -0.7836079767E-06      0.9230340828E-05
          0                 5           1            53    1     1      -0.3612445792E-06      73    4    1         0.5604813325E-07      0.6520376712E-06

    ------------------------------------------------
       NWT REQUIRED            5 OUTER ITERATIONS 
       AND A TOTAL OF          7 INNER ITERATIONS.
    ------------------------------------------------

 NO OUTPUT CONTROL FOR STRESS PERIOD   21   TIME STEP   10
 
 WELLS WITH REDUCED PUMPING FOR STRESS PERIOD    21 TIME STEP    10
   LAY   ROW   COL         APPL.Q          ACT.Q        GW-HEAD       CELL-BOT
     1     3    50  -0.142003E+01  -0.565669E+00   0.483627E+01   0.000000E+00
     1     5    55  -0.142003E+01  -0.483187E+00   0.434922E+01   0.000000E+00
 
 
 SOLVING FOR HEAD 
                                                   Max.-Head-Change                         Max.-Flux-Residual
  Residual-Control   Outer-Iter.   Inner-Iter.     Column Row Layer    Maximum-Head-Change  Column Row Layer    Maximum-Flux-Residual          L2-NORM 
          0                 1           2            66    4     1      -0.9299723106E-02      53    3    1        -0.7472844067E-03      0.1130011006E-01
          0                 2           2            53    1     1       0.8006447138E-03      53    3    1         0.7471553794E-04      0.1177093387E-02
          0                 3           1            53    1     1      -0.7178263924E-04      72    4    1         0.9226470707E-05      0.1137278743E-03
          0                 4           1            53    1     1       0.5685990328E-05      72    4    1        -0.8251069232E-06      0.9380786859E-05
          0                 5           1            53    1     1      -0.3964118690E-06      73    4    1         0.5939208947E-07      0.6642943017E-06

    ------------------------------------------------
       NWT REQUIRED            5 OUTER ITERATIONS 
       AND A TOTAL OF          7 INNER ITERATIONS.
    ------------------------------------------------

 NO OUTPUT CONTROL FOR STRESS PERIOD   21   TIME STEP   11
 
 WELLS WITH REDUCED PUMPING FOR STRESS PERIOD    21 TIME STEP    11
   LAY   ROW   COL         APPL.Q          ACT.Q        GW-HEAD       CELL-BOT
     1     3    50  -0.142005E+01  -0.565443E+00   0.483503E+01   0.000000E+00
     1     5    55  -0.142005E+01  -0.482925E+00   0.434776E+01   0.000000E+00
 
 
 SOLVING FOR HEAD 
                                                   Max.-Head-Change                         Max.-Flux-Residual
  Residual-Control   Outer-Iter.   Inner-Iter.     Column Row Layer    Maximum-Head-Change  Column Row Layer    Maximum-Flux-Residual          L2-NORM 
          0                 1           2            53    3     1      -0.9770962667E-02      53    3    1        -0.7484001700E-03      0.1130404199E-01
          0                 2           2            53    1     1       0.8783255342E-03      53    3    1         0.7481464761E-04      0.1179549023E-02
          0                 3           1            53    1     1      -0.7870783789E-04      71    4    1         0.9526394630E-05      0.1149419793E-03
          0                 4           1            53    1     1       0.6237267515E-05      72    4    1        -0.8661993292E-06      0.9533752725E-05
          0                 5           1            53    1     1      -0.4347033535E-06      72    4    1         0.6280145648E-07      0.6770279078E-06

    ------------------------------------------------
       NWT REQUIRED            5 OUTER ITERATIONS 
       AND A TOTAL OF          7 INNER ITERATIONS.
    ------------------------------------------------

 NO OUTPUT CONTROL FOR STRESS PERIOD   21   TIME STEP   12
 
 WELLS WITH REDUCED PUMPING FOR STRESS PERIOD    21 TIME STEP    12
   LAY   ROW   COL         APPL.Q          ACT.Q        GW-HEAD       CELL-BOT
     1     3    50  -0.141995E+01  -0.565107E+00   0.483345E+01   0.000000E+00
     1     5    55  -0.141995E+01  -0.482552E+00   0.434591E+01   0.000000E+00
 
 
 SOLVING FOR HEAD 
                                                   Max.-Head-Change                         Max.-Flux-Residual
  Residual-Control   Outer-Iter.   Inner-Iter.     Column Row Layer    Maximum-Head-Change  Column Row Layer    Maximum-Flux-Residual          L2-NORM 
          0                 1           2            69    1     1      -0.1050631524E-01      53    3    1        -0.7321784471E-03      0.1129196477E-01
          0                 2           2            53    1     1       0.9613428903E-03      53    3    1         0.7318729566E-04      0.1178536032E-02
          0                 3           1            53    1     1      -0.8610424015E-04      71    4    1         0.9813199020E-05      0.1158679186E-03
          0                 4           1            53    1     1       0.6825940802E-05      72    4    1        -0.9066284239E-06      0.9670484308E-05
          0                 5           1            53    1     1      -0.4756060559E-06      72    4    1         0.6628731875E-07      0.6890115557E-06

    ------------------------------------------------
       NWT REQUIRED            5 OUTER ITERATIONS 
       AND A TOTAL OF          7 INNER ITERATIONS.
    ------------------------------------------------

 NO OUTPUT CONTROL FOR STRESS PERIOD   21   TIME STEP   13
 
 WELLS WITH REDUCED PUMPING FOR STRESS PERIOD    21 TIME STEP    13
   LAY   ROW   COL         APPL.Q          ACT.Q        GW-HEAD       CELL-BOT
     1     3    50  -0.141996E+01  -0.564794E+00   0.483175E+01   0.000000E+00
     1     5    55  -0.141996E+01  -0.482194E+00   0.434393E+01   0.000000E+00
 
 
 SOLVING FOR HEAD 
                                                   Max.-Head-Change                         Max.-Flux-Residual
  Residual-Control   Outer-Iter.   Inner-Iter.     Column Row Layer    Maximum-Head-Change  Column Row Layer    Maximum-Flux-Residual          L2-NORM 
          0                 1           2            65    4     1      -0.1160556226E-01      53    3    1        -0.7109873555E-03      0.1128502020E-01
          0                 2           2            53    1     1       0.1048586655E-02      53    3    1         0.7106593990E-04      0.1178501992E-02
          0                 3           1            53    1     1      -0.9386553504E-04      71    4    1         0.1008405676E-04      0.1168324401E-03
          0                 4           1            53    1     1       0.7443446206E-05      72    4    1        -0.9461586536E-06      0.9813983478E-05
          0                 5           1            53    1     1      -0.5185245034E-06      72    4    1         0.6979390221E-07      0.7018042518E-06

    ------------------------------------------------
       NWT REQUIRED            5 OUTER ITERATIONS 
       AND A TOTAL OF          7 INNER ITERATIONS.
    ------------------------------------------------

 NO OUTPUT CONTROL FOR STRESS PERIOD   21   TIME STEP   14
 
 WELLS WITH REDUCED PUMPING FOR STRESS PERIOD    21 TIME STEP    14
   LAY   ROW   COL         APPL.Q          ACT.Q        GW-HEAD       CELL-BOT
     1     3    50  -0.142003E+01  -0.564479E+00   0.482990E+01   0.000000E+00
     1     5    55  -0.142003E+01  -0.481830E+00   0.434180E+01   0.000000E+00
 
 
 SOLVING FOR HEAD 
                                                   Max.-Head-Change                         Max.-Flux-Residual
  Residual-Control   Outer-Iter.   Inner-Iter.     Column Row Layer    Maximum-Head-Change  Column Row Layer    Maximum-Flux-Residual          L2-NORM 
          0                 1           2            69    1     1      -0.1266093905E-01      65    3    1        -0.7089053040E-03      0.1126308869E-01
          0                 2           2            53    1     1       0.1139125217E-02      65    3    1         0.7088344927E-04      0.1177484376E-02
          0                 3           1            53    1     1      -0.1018972790E-03      71    4    1         0.1033875201E-04      0.1176749424E-03
          0                 4           1            53    1     1       0.8082159725E-05      72    4    1        -0.9845757152E-06      0.9952816595E-05
          0                 5           1            53    1     1      -0.5629230829E-06      72    4    1         0.7329699692E-07      0.7147031439E-06

    ------------------------------------------------
       NWT REQUIRED            5 OUTER ITERATIONS 
       AND A TOTAL OF          7 INNER ITERATIONS.
    ------------------------------------------------

 NO OUTPUT CONTROL FOR STRESS PERIOD   21   TIME STEP   15
 
 WELLS WITH REDUCED PUMPING FOR STRESS PERIOD    21 TIME STEP    15
   LAY   ROW   COL         APPL.Q          ACT.Q        GW-HEAD       CELL-BOT
     1     3    50  -0.142003E+01  -0.564129E+00   0.482803E+01   0.000000E+00
     1     5    55  -0.142003E+01  -0.481430E+00   0.433962E+01   0.000000E+00
 
 
 SOLVING FOR HEAD 
                                                   Max.-Head-Change                         Max.-Flux-Residual
  Residual-Control   Outer-Iter.   Inner-Iter.     Column Row Layer    Maximum-Head-Change  Column Row Layer    Maximum-Flux-Residual          L2-NORM 
          0                 1           2            64    4     1      -0.1409511168E-01      93    4    1        -0.1192379762E-02      0.1235682513E-01
          0                 2           2            53    1     1       0.1232170282E-02     100    4    1         0.8037856117E-04      0.1174288641E-02
          0                 3           1            53    1     1      -0.1101180482E-03      71    4    1         0.1057709726E-04      0.1169031428E-03
          0                 4           1            53    1     1       0.8734577918E-05      72    4    1        -0.1021689998E-05      0.1001134831E-04
          0                 5           1            53    1     1      -0.6082520594E-06      72    4    1         0.7677697589E-07      0.7256426808E-06

    ------------------------------------------------
       NWT REQUIRED            5 OUTER ITERATIONS 
       AND A TOTAL OF          7 INNER ITERATIONS.
    ------------------------------------------------

 NO OUTPUT CONTROL FOR STRESS PERIOD   21   TIME STEP   16
 
 WELLS WITH REDUCED PUMPING FOR STRESS PERIOD    21 TIME STEP    16
   LAY   ROW   COL         APPL.Q          ACT.Q        GW-HEAD       CELL-BOT
     1     3    50  -0.142003E+01  -0.563753E+00   0.482601E+01   0.000000E+00
     1     5    55  -0.142003E+01  -0.481003E+00   0.433728E+01   0.000000E+00
 
 
 SOLVING FOR HEAD 
                                                   Max.-Head-Change                         Max.-Flux-Residual
  Residual-Control   Outer-Iter.   Inner-Iter.     Column Row Layer    Maximum-Head-Change  Column Row Layer    Maximum-Flux-Residual          L2-NORM 
          0                 1           2            89    4     1      -0.2025854547E-01      91    4    1        -0.1594143325E-02      0.1497856070E-01
          0                 2           2            67    1     1       0.1340377894E-02     100    4    1         0.1197545114E-03      0.1243829523E-02
          0                 3           2            53    1     1      -0.1184709041E-03      71    4    1         0.1079903472E-04      0.1207936370E-03
          0                 4           1            53    1     1       0.9402847144E-05      72    4    1        -0.1057308465E-05      0.1054863468E-04
          0                 5           1            53    1     1      -0.6545562982E-06      72    4    1         0.8019041609E-07      0.7781571220E-06

    ------------------------------------------------
       NWT REQUIRED            5 OUTER ITERATIONS 
       AND A TOTAL OF          8 INNER ITERATIONS.
    ------------------------------------------------

 NO OUTPUT CONTROL FOR STRESS PERIOD   21   TIME STEP   17
 
 WELLS WITH REDUCED PUMPING FOR STRESS PERIOD    21 TIME STEP    17
   LAY   ROW   COL         APPL.Q          ACT.Q        GW-HEAD       CELL-BOT
     1     3    50  -0.141998E+01  -0.563336E+00   0.482388E+01   0.000000E+00
     1     5    55  -0.141998E+01  -0.480532E+00   0.433479E+01   0.000000E+00
 
 
 SOLVING FOR HEAD 
                                                   Max.-Head-Change                         Max.-Flux-Residual
  Residual-Control   Outer-Iter.   Inner-Iter.     Column Row Layer    Maximum-Head-Change  Column Row Layer    Maximum-Flux-Residual          L2-NORM 
          0                 1           2            82    4     1      -0.2544465760E-01      82    4    1        -0.1652904917E-02      0.1612402539E-01
          0                 2           2            84    2     1       0.1555496494E-02      88    3    1         0.7957738775E-04      0.1362495432E-02
          0                 3           2            53    1     1      -0.1268968718E-03      72    4    1         0.1102945291E-04      0.1359682581E-03
          0                 4           1            53    1     1       0.1007211200E-04      72    4    1        -0.1095430923E-05      0.1215205393E-04
          0                 5           1            53    1     1      -0.7007859684E-06      86    4    1         0.8858029155E-07      0.9106334168E-06

    ------------------------------------------------
       NWT REQUIRED            5 OUTER ITERATIONS 
       AND A TOTAL OF          8 INNER ITERATIONS.
    ------------------------------------------------

 NO OUTPUT CONTROL FOR STRESS PERIOD   21   TIME STEP   18
 
 WELLS WITH REDUCED PUMPING FOR STRESS PERIOD    21 TIME STEP    18
   LAY   ROW   COL         APPL.Q          ACT.Q        GW-HEAD       CELL-BOT
     1     3    50  -0.141998E+01  -0.562892E+00   0.482151E+01   0.000000E+00
     1     5    55  -0.141998E+01  -0.480025E+00   0.433203E+01   0.000000E+00
 
 
 SOLVING FOR HEAD 
                                                   Max.-Head-Change                         Max.-Flux-Residual
  Residual-Control   Outer-Iter.   Inner-Iter.     Column Row Layer    Maximum-Head-Change  Column Row Layer    Maximum-Flux-Residual          L2-NORM 
          0                 1           2            78    4     1      -0.2990749121E-01      77    4    1        -0.1675771550E-02      0.1734812945E-01
          0                 2           2            83    7     1       0.2006805246E-02      83    3    1         0.9429653102E-04      0.1526072783E-02
          0                 3           2            83    7     1      -0.1577902000E-03      69    4    1         0.1125257564E-04      0.1553549044E-03
          0                 4           1            83    7     1       0.1147021974E-04      83    4    1        -0.1308214749E-05      0.1404101246E-04
          0                 5           1            83    7     1      -0.7548588200E-06      84    4    1         0.1090960264E-06      0.1060286018E-05

    ------------------------------------------------
       NWT REQUIRED            5 OUTER ITERATIONS 
       AND A TOTAL OF          8 INNER ITERATIONS.
    ------------------------------------------------

 NO OUTPUT CONTROL FOR STRESS PERIOD   21   TIME STEP   19
 
 WELLS WITH REDUCED PUMPING FOR STRESS PERIOD    21 TIME STEP    19
   LAY   ROW   COL         APPL.Q          ACT.Q        GW-HEAD       CELL-BOT
     1     3    50  -0.141997E+01  -0.562385E+00   0.481881E+01   0.000000E+00
     1     5    55  -0.141997E+01  -0.479461E+00   0.432896E+01   0.000000E+00
 
 
 SOLVING FOR HEAD 
                                                   Max.-Head-Change                         Max.-Flux-Residual
  Residual-Control   Outer-Iter.   Inner-Iter.     Column Row Layer    Maximum-Head-Change  Column Row Layer    Maximum-Flux-Residual          L2-NORM 
          0                 1           2            74    4     1      -0.3413965824E-01      73    4    1        -0.1678820506E-02      0.1828884292E-01
          0                 2           2            79    7     1       0.2458187001E-02      78    3    1         0.1033489190E-03      0.1703288051E-02
          0                 3           2            80    7     1      -0.1932243696E-03      86    4    1         0.1407035800E-04      0.1756099380E-03
          0                 4           1            80    7     1       0.1401137826E-04      85    4    1        -0.1537548068E-05      0.1590868392E-04
          0                 5           1            79    7     1      -0.9184325377E-06      84    4    1         0.1262276612E-06      0.1203638504E-05

    ------------------------------------------------
       NWT REQUIRED            5 OUTER ITERATIONS 
       AND A TOTAL OF          8 INNER ITERATIONS.
    ------------------------------------------------

 NO OUTPUT CONTROL FOR STRESS PERIOD   21   TIME STEP   20
 
 WELLS WITH REDUCED PUMPING FOR STRESS PERIOD    21 TIME STEP    20
   LAY   ROW   COL         APPL.Q          ACT.Q        GW-HEAD       CELL-BOT
     1     3    50  -0.142002E+01  -0.561838E+00   0.481577E+01   0.000000E+00
     1     5    55  -0.142002E+01  -0.478839E+00   0.432546E+01   0.000000E+00
 
 
 SOLVING FOR HEAD 
                                                   Max.-Head-Change                         Max.-Flux-Residual
  Residual-Control   Outer-Iter.   Inner-Iter.     Column Row Layer    Maximum-Head-Change  Column Row Layer    Maximum-Flux-Residual          L2-NORM 
          0                 1           2            75    4     1      -0.3802031427E-01      70    4    1        -0.1683148632E-02      0.1959285559E-01
          0                 2           2            76    7     1       0.2896591672E-02      78    3    1         0.1096298323E-03      0.1802103012E-02
          0                 3           2            77    1     1      -0.2278949077E-03      80    4    1         0.1598450932E-04      0.1858197244E-03
          0                 4           1            77    7     1       0.1651388201E-04      80    4    1        -0.1746657539E-05      0.1698145977E-04
          0                 5           1            77    7     1      -0.1080194167E-05      80    4    1         0.1428461491E-06      0.1294796503E-05
          0                 6           1            78    7     1       0.6254799077E-07      80    4    1        -0.9327825623E-08      0.8204844502E-07

    ------------------------------------------------
       NWT REQUIRED            6 OUTER ITERATIONS 
       AND A TOTAL OF          9 INNER ITERATIONS.
    ------------------------------------------------

 NO OUTPUT CONTROL FOR STRESS PERIOD   21   TIME STEP   21
 
 WELLS WITH REDUCED PUMPING FOR STRESS PERIOD    21 TIME STEP    21
   LAY   ROW   COL         APPL.Q          ACT.Q        GW-HEAD       CELL-BOT
     1     3    50  -0.142000E+01  -0.561241E+00   0.481261E+01   0.000000E+00
     1     5    55  -0.142000E+01  -0.478160E+00   0.432177E+01   0.000000E+00
 
 
 SOLVING FOR HEAD 
                                                   Max.-Head-Change                         Max.-Flux-Residual
  Residual-Control   Outer-Iter.   Inner-Iter.     Column Row Layer    Maximum-Head-Change  Column Row Layer    Maximum-Flux-Residual          L2-NORM 
          0                 1           2            72    4     1      -0.4286451693E-01      67    4    1        -0.1659347250E-02      0.2057545368E-01
          0                 2           2            74    7     1       0.3323620657E-02      75    3    1         0.1153120742E-03      0.1950731365E-02
          0                 3           2            75    1     1      -0.2618271723E-03      76    4    1         0.1720375710E-04      0.2027052001E-03
          0                 4           1            75    7     1       0.1895769128E-04      76    4    1        -0.1884285524E-05      0.1857108728E-04
          0                 5           1            75    7     1      -0.1237585963E-05      76    4    1         0.1546019384E-06      0.1418265504E-05
          0                 6           1            75    7     1       0.7151878521E-07      76    4    1        -0.1013031437E-07      0.9005763242E-07

    ------------------------------------------------
       NWT REQUIRED            6 OUTER ITERATIONS 
       AND A TOTAL OF          9 INNER ITERATIONS.
    ------------------------------------------------

 NO OUTPUT CONTROL FOR STRESS PERIOD   21   TIME STEP   22
 
 WELLS WITH REDUCED PUMPING FOR STRESS PERIOD    21 TIME STEP    22
   LAY   ROW   COL         APPL.Q          ACT.Q        GW-HEAD       CELL-BOT
     1     3    50  -0.141999E+01  -0.560534E+00   0.480883E+01   0.000000E+00
     1     5    55  -0.141999E+01  -0.477373E+00   0.431747E+01   0.000000E+00
 
 
 SOLVING FOR HEAD 
                                                   Max.-Head-Change                         Max.-Flux-Residual
  Residual-Control   Outer-Iter.   Inner-Iter.     Column Row Layer    Maximum-Head-Change  Column Row Layer    Maximum-Flux-Residual          L2-NORM 
          0                 1           2            69    4     1      -0.4713549098E-01      64    4    1        -0.1667396233E-02      0.2138466680E-01
          0                 2           2            76    7     1       0.3782204318E-02      72    3    1         0.1185073293E-03      0.2061707574E-02
          0                 3           2            75    7     1      -0.2962131622E-03      73    4    1         0.1794002997E-04      0.2149249601E-03
          0                 4           1            74    7     1       0.2130925403E-04      73    4    1        -0.1968945258E-05      0.1974365898E-04
          0                 5           1            72    7     1      -0.1385773212E-05      72    4    1         0.1605735314E-06      0.1510624919E-05
          0                 6           1            72    7     1       0.8002986596E-07      72    4    1        -0.1055137666E-07      0.9614372169E-07

    ------------------------------------------------
       NWT REQUIRED            6 OUTER ITERATIONS 
       AND A TOTAL OF          9 INNER ITERATIONS.
    ------------------------------------------------

 NO OUTPUT CONTROL FOR STRESS PERIOD   21   TIME STEP   23
 
 WELLS WITH REDUCED PUMPING FOR STRESS PERIOD    21 TIME STEP    23
   LAY   ROW   COL         APPL.Q          ACT.Q        GW-HEAD       CELL-BOT
     1     3    50  -0.141998E+01  -0.559709E+00   0.480442E+01   0.000000E+00
     1     5    55  -0.141998E+01  -0.476445E+00   0.431240E+01   0.000000E+00
 
 
 SOLVING FOR HEAD 
                                                   Max.-Head-Change                         Max.-Flux-Residual
  Residual-Control   Outer-Iter.   Inner-Iter.     Column Row Layer    Maximum-Head-Change  Column Row Layer    Maximum-Flux-Residual          L2-NORM 
          0                 1           3            73    4     1      -0.5300862477E-01      59    4    1        -0.1602199285E-02      0.2234452300E-01
          0                 2           2            73    7     1       0.4290518972E-02      77    3    1         0.1192463925E-03      0.2130192952E-02
          0                 3           2            73    7     1      -0.3343486649E-03      69    4    1         0.1811623885E-04      0.2215476771E-03
          0                 4           1            73    7     1       0.2383370220E-04      77    4    1        -0.2012941090E-05      0.2046425307E-04
          0                 5           1            71    7     1      -0.1535836893E-05      78    4    1         0.1674275971E-06      0.1572856406E-05
          0                 6           1            70    7     1       0.8838154046E-07      76    4    1        -0.1119493298E-07      0.1005763549E-06

    ------------------------------------------------
       NWT REQUIRED            6 OUTER ITERATIONS 
       AND A TOTAL OF         10 INNER ITERATIONS.
    ------------------------------------------------

 NO OUTPUT CONTROL FOR STRESS PERIOD   21   TIME STEP   24
 
 WELLS WITH REDUCED PUMPING FOR STRESS PERIOD    21 TIME STEP    24
   LAY   ROW   COL         APPL.Q          ACT.Q        GW-HEAD       CELL-BOT
     1     3    50  -0.141999E+01  -0.558898E+00   0.480005E+01   0.000000E+00
     1     5    55  -0.141999E+01  -0.475525E+00   0.430734E+01   0.000000E+00
 
 
 SOLVING FOR HEAD 
                                                   Max.-Head-Change                         Max.-Flux-Residual
  Residual-Control   Outer-Iter.   Inner-Iter.     Column Row Layer    Maximum-Head-Change  Column Row Layer    Maximum-Flux-Residual          L2-NORM 
          0                 1           3            70    4     1      -0.5897881472E-01      58    4    1        -0.1649167711E-02      0.2312740167E-01
          0                 2           2            72    7     1       0.4798865894E-02      73    3    1         0.1230650567E-03      0.2234734637E-02
          0                 3           2            72    7     1      -0.3730875045E-03      74    4    1         0.1855857830E-04      0.2331311978E-03
          0                 4           1            71    7     1       0.2649721041E-04      74    4    1        -0.2092645035E-05      0.2158699538E-04
          0                 5           1            69    7     1      -0.1693179516E-05      74    4    1         0.1761651287E-06      0.1660563716E-05
          0                 6           1            66    7     1       0.9745095379E-07      74    4    1        -0.1179994946E-07      0.1063993061E-06

    ------------------------------------------------
       NWT REQUIRED            6 OUTER ITERATIONS 
       AND A TOTAL OF         10 INNER ITERATIONS.
    ------------------------------------------------

 NO OUTPUT CONTROL FOR STRESS PERIOD   21   TIME STEP   25
 
 WELLS WITH REDUCED PUMPING FOR STRESS PERIOD    21 TIME STEP    25
   LAY   ROW   COL         APPL.Q          ACT.Q        GW-HEAD       CELL-BOT
     1     3    50  -0.142002E+01  -0.557968E+00   0.479501E+01   0.000000E+00
     1     5    55  -0.142002E+01  -0.474493E+00   0.430163E+01   0.000000E+00
 
 
 SOLVING FOR HEAD 
                                                   Max.-Head-Change                         Max.-Flux-Residual
  Residual-Control   Outer-Iter.   Inner-Iter.     Column Row Layer    Maximum-Head-Change  Column Row Layer    Maximum-Flux-Residual          L2-NORM 
          0                 1           3            67    4     1      -0.6488881634E-01      48    4    1        -0.1627172326E-02      0.2373402150E-01
          0                 2           2            70    7     1       0.5320653929E-02      70    3    1         0.1246194859E-03      0.2320495885E-02
          0                 3           2            70    7     1      -0.4128969231E-03      74    4    1         0.1900386951E-04      0.2428811987E-03
          0                 4           1            69    7     1       0.2925295852E-04      74    4    1        -0.2151158728E-05      0.2253146630E-04
          0                 5           1            69    7     1      -0.1866546183E-05      74    4    1         0.1819639230E-06      0.1732376952E-05
          0                 6           1            64    7     1       0.1074680898E-06      74    4    1        -0.1223961021E-07      0.1111139079E-06

    ------------------------------------------------
       NWT REQUIRED            6 OUTER ITERATIONS 
       AND A TOTAL OF         10 INNER ITERATIONS.
    ------------------------------------------------

 NO OUTPUT CONTROL FOR STRESS PERIOD   21   TIME STEP   26
 
 WELLS WITH REDUCED PUMPING FOR STRESS PERIOD    21 TIME STEP    26
   LAY   ROW   COL         APPL.Q          ACT.Q        GW-HEAD       CELL-BOT
     1     3    50  -0.142001E+01  -0.556553E+00   0.478742E+01   0.000000E+00
     1     5    55  -0.142001E+01  -0.472980E+00   0.429334E+01   0.000000E+00
 
 
 SOLVING FOR HEAD 
                                                   Max.-Head-Change                         Max.-Flux-Residual
  Residual-Control   Outer-Iter.   Inner-Iter.     Column Row Layer    Maximum-Head-Change  Column Row Layer    Maximum-Flux-Residual          L2-NORM 
          0                 1           3            74    4     1      -0.7225930883E-01      56    4    1        -0.1510291604E-02      0.2424742771E-01
          0                 2           2            74    7     1       0.5941199097E-02      68    3    1         0.1246508193E-03      0.2378921503E-02
          0                 3           2            74    7     1      -0.4564557403E-03      70    4    1         0.1930863957E-04      0.2492437060E-03
          0                 4           1            67    1     1       0.3210829354E-04      70    4    1        -0.2189046052E-05      0.2317039985E-04
          0                 5           1            65    1     1      -0.2051694968E-05      70    4    1         0.1854582070E-06      0.1780654818E-05
          0                 6           1            62    7     1       0.1185603852E-06      70    4    1        -0.1253392767E-07      0.1143727372E-06

    ------------------------------------------------
       NWT REQUIRED            6 OUTER ITERATIONS 
       AND A TOTAL OF         10 INNER ITERATIONS.
    ------------------------------------------------

 NO OUTPUT CONTROL FOR STRESS PERIOD   21   TIME STEP   27
 
 WELLS WITH REDUCED PUMPING FOR STRESS PERIOD    21 TIME STEP    27
   LAY   ROW   COL         APPL.Q          ACT.Q        GW-HEAD       CELL-BOT
     1     3    50  -0.142000E+01  -0.554383E+00   0.477578E+01   0.000000E+00
     1     5    55  -0.142000E+01  -0.470724E+00   0.428095E+01   0.000000E+00
 
 
 SOLVING FOR HEAD 
                                                   Max.-Head-Change                         Max.-Flux-Residual
  Residual-Control   Outer-Iter.   Inner-Iter.     Column Row Layer    Maximum-Head-Change  Column Row Layer    Maximum-Flux-Residual          L2-NORM 
          0                 1           3            71    4     1      -0.8065629233E-01      54    4    1        -0.1374155717E-02      0.2456713038E-01
          0                 2           2            72    7     1       0.6632858059E-02      74    5    1         0.1270154832E-03      0.2416744449E-02
          0                 3           2            71    7     1      -0.5083980342E-03      67    4    1         0.1932689108E-04      0.2527263312E-03
          0                 4           1            71    7     1       0.3532845960E-04      74    4    1        -0.2205365414E-05      0.2353459747E-04
          0                 5           1            63    1     1      -0.2247137897E-05      74    4    1         0.1906356566E-06      0.1806254667E-05
          0                 6           1            62    7     1       0.1298695810E-06      74    4    1        -0.1304888286E-07      0.1162257029E-06

    ------------------------------------------------
       NWT REQUIRED            6 OUTER ITERATIONS 
       AND A TOTAL OF         10 INNER ITERATIONS.
    ------------------------------------------------

 NO OUTPUT CONTROL FOR STRESS PERIOD   21   TIME STEP   28
 
 WELLS WITH REDUCED PUMPING FOR STRESS PERIOD    21 TIME STEP    28
   LAY   ROW   COL         APPL.Q          ACT.Q        GW-HEAD       CELL-BOT
     1     3    50  -0.142000E+01  -0.551732E+00   0.476152E+01   0.000000E+00
     1     5    55  -0.142000E+01  -0.468012E+00   0.426602E+01   0.000000E+00
 
 
 SOLVING FOR HEAD 
                                                   Max.-Head-Change                         Max.-Flux-Residual
  Residual-Control   Outer-Iter.   Inner-Iter.     Column Row Layer    Maximum-Head-Change  Column Row Layer    Maximum-Flux-Residual          L2-NORM 
          0                 1           3            68    4     1      -0.8886922562E-01      71    3    1        -0.1289717389E-02      0.2494361061E-01
          0                 2           2            70    7     1       0.7337607471E-02      71    3    1         0.1289236289E-03      0.2439814075E-02
          0                 3           2            70    7     1      -0.5610986028E-03      71    4    1         0.1938588165E-04      0.2540893829E-03
          0                 4           1            69    7     1       0.3888000116E-04      71    4    1        -0.2255578105E-05      0.2373065888E-04
          0                 5           1            63    1     1      -0.2441133088E-05      72    4    1         0.1951696920E-06      0.1817633529E-05
          0                 6           1            62    7     1       0.1414632900E-06      72    4    1        -0.1340540656E-07      0.1171951211E-06

    ------------------------------------------------
       NWT REQUIRED            6 OUTER ITERATIONS 
       AND A TOTAL OF         10 INNER ITERATIONS.
    ------------------------------------------------

 NO OUTPUT CONTROL FOR STRESS PERIOD   21   TIME STEP   29
 
 WELLS WITH REDUCED PUMPING FOR STRESS PERIOD    21 TIME STEP    29
   LAY   ROW   COL         APPL.Q          ACT.Q        GW-HEAD       CELL-BOT
     1     3    50  -0.141999E+01  -0.549009E+00   0.474690E+01   0.000000E+00
     1     5    55  -0.141999E+01  -0.465192E+00   0.425051E+01   0.000000E+00
 
 
 SOLVING FOR HEAD 
                                                   Max.-Head-Change                         Max.-Flux-Residual
  Residual-Control   Outer-Iter.   Inner-Iter.     Column Row Layer    Maximum-Head-Change  Column Row Layer    Maximum-Flux-Residual          L2-NORM 
          0                 1           3            66    4     1      -0.9667949343E-01      69    3    1        -0.1292310277E-02      0.2520394236E-01
          0                 2           2            68    7     1       0.8060914955E-02      69    3    1         0.1291722572E-03      0.2489156135E-02
          0                 3           2            68    7     1      -0.6154155200E-03      70    4    1         0.1951923171E-04      0.2593074649E-03
          0                 4           1            67    7     1       0.4255321017E-04      70    4    1        -0.2277913049E-05      0.2424620699E-04
          0                 5           1            65    7     1      -0.2657902419E-05      72    4    1         0.1977713122E-06      0.1848349682E-05
          0                 6           1            62    7     1       0.1533859975E-06      70    4    1        -0.1365853564E-07      0.1191678179E-06

    ------------------------------------------------
       NWT REQUIRED            6 OUTER ITERATIONS 
       AND A TOTAL OF         10 INNER ITERATIONS.
    ------------------------------------------------

 NO OUTPUT CONTROL FOR STRESS PERIOD   21   TIME STEP   30
 
 WELLS WITH REDUCED PUMPING FOR STRESS PERIOD    21 TIME STEP    30
   LAY   ROW   COL         APPL.Q          ACT.Q        GW-HEAD       CELL-BOT
     1     3    50  -0.141999E+01  -0.546113E+00   0.473130E+01   0.000000E+00
     1     5    55  -0.141999E+01  -0.462210E+00   0.423405E+01   0.000000E+00
 



 STREAM LISTING     PERIOD     21   STEP       30

 LAYER ROW COL. STREAM  RCH.   FLOW INTO    STREAM     FLOW OUT OF   OVRLND.    DIRECT     STREAM      STREAM      STREAM     STREAM  STREAMBED   FLOW TO   CHNG. UNSAT. 
                SEG.NO.  NO.   STRM. RCH.    LOSS       STRM. RCH.   RUNOFF     PRECIP       ET         HEAD        DEPTH      WIDTH  CONDCTNC.   WAT. TAB.

   1    4    1     1     1    1.2630E+01  3.5811E-03   1.2626E+01  0.000E+00  0.000E+00  0.000E+00  1.42557E+02  2.706E+00  5.051E+00  1.117E-03  4.138E-03 -5.566E-04
   1    4    2     1     2    1.2626E+01  3.5803E-03   1.2623E+01  0.000E+00  0.000E+00  0.000E+00  1.42256E+02  2.706E+00  5.050E+00  1.117E-03  4.130E-03 -5.499E-04
   1    4    3     1     3    1.2623E+01  3.5795E-03   1.2619E+01  0.000E+00  0.000E+00  0.000E+00  1.41956E+02  2.706E+00  5.050E+00  1.117E-03  4.124E-03 -5.443E-04
   1    4    4     1     4    1.2619E+01  3.5786E-03   1.2616E+01  0.000E+00  0.000E+00  0.000E+00  1.41655E+02  2.705E+00  5.049E+00  1.116E-03  4.118E-03 -5.397E-04
   1    4    5     1     5    1.2616E+01  3.5778E-03   1.2612E+01  0.000E+00  0.000E+00  0.000E+00  1.41355E+02  2.705E+00  5.049E+00  1.116E-03  4.114E-03 -5.363E-04
   1    4    6     1     6    1.2612E+01  3.5770E-03   1.2609E+01  0.000E+00  0.000E+00  0.000E+00  1.41055E+02  2.705E+00  5.048E+00  1.116E-03  4.111E-03 -5.341E-04
   1    4    7     1     7    1.2609E+01  3.5762E-03   1.2605E+01  0.000E+00  0.000E+00  0.000E+00  1.40754E+02  2.704E+00  5.048E+00  1.116E-03  4.109E-03 -5.329E-04
   1    4    8     1     8    1.2605E+01  3.5753E-03   1.2601E+01  0.000E+00  0.000E+00  0.000E+00  1.40454E+02  2.704E+00  5.047E+00  1.116E-03  4.108E-03 -5.330E-04
   1    4    9     1     9    1.2601E+01  3.5745E-03   1.2598E+01  0.000E+00  0.000E+00  0.000E+00  1.40153E+02  2.703E+00  5.047E+00  1.116E-03  4.109E-03 -5.342E-04
   1    4   10     1    10    1.2598E+01  3.5737E-03   1.2594E+01  0.000E+00  0.000E+00  0.000E+00  1.39853E+02  2.703E+00  5.046E+00  1.116E-03  4.110E-03 -5.366E-04
   1    4   11     1    11    1.2594E+01  3.5728E-03   1.2591E+01  0.000E+00  0.000E+00  0.000E+00  1.39553E+02  2.703E+00  5.046E+00  1.116E-03  4.113E-03 -5.402E-04
   1    4   12     1    12    1.2591E+01  3.5720E-03   1.2587E+01  0.000E+00  0.000E+00  0.000E+00  1.39252E+02  2.702E+00  5.046E+00  1.115E-03  4.117E-03 -5.450E-04
   1    4   13     1    13    1.2587E+01  3.5712E-03   1.2584E+01  0.000E+00  0.000E+00  0.000E+00  1.38952E+02  2.702E+00  5.045E+00  1.115E-03  4.122E-03 -5.511E-04
   1    4   14     1    14    1.2584E+01  3.5704E-03   1.2580E+01  0.000E+00  0.000E+00  0.000E+00  1.38652E+02  2.702E+00  5.045E+00  1.115E-03  4.129E-03 -5.583E-04
   1    4   15     1    15    1.2580E+01  3.5695E-03   1.2576E+01  0.000E+00  0.000E+00  0.000E+00  1.38351E+02  2.701E+00  5.044E+00  1.115E-03  4.127E-03 -5.571E-04
   1    4   16     1    16    1.2576E+01  3.5687E-03   1.2573E+01  0.000E+00  0.000E+00  0.000E+00  1.38051E+02  2.701E+00  5.044E+00  1.115E-03  4.124E-03 -5.551E-04
   1    4   17     1    17    1.2573E+01  3.5679E-03   1.2569E+01  0.000E+00  0.000E+00  0.000E+00  1.37750E+02  2.700E+00  5.043E+00  1.115E-03  4.121E-03 -5.531E-04
   1    4   18     1    18    1.2569E+01  3.5670E-03   1.2566E+01  0.000E+00  0.000E+00  0.000E+00  1.37450E+02  2.700E+00  5.043E+00  1.115E-03  4.118E-03 -5.511E-04
   1    4   19     1    19    1.2566E+01  3.5662E-03   1.2562E+01  0.000E+00  0.000E+00  0.000E+00  1.37150E+02  2.700E+00  5.042E+00  1.115E-03  4.115E-03 -5.490E-04
   1    4   20     1    20    1.2562E+01  3.5654E-03   1.2559E+01  0.000E+00  0.000E+00  0.000E+00  1.36849E+02  2.699E+00  5.042E+00  1.114E-03  4.112E-03 -5.470E-04
   1    4   21     1    21    1.2559E+01  3.5646E-03   1.2555E+01  0.000E+00  0.000E+00  0.000E+00  1.36549E+02  2.699E+00  5.041E+00  1.114E-03  4.121E-03 -5.567E-04
   1    4   22     1    22    1.2555E+01  3.5637E-03   1.2551E+01  0.000E+00  0.000E+00  0.000E+00  1.36248E+02  2.698E+00  5.041E+00  1.114E-03  4.146E-03 -5.820E-04
   1    4   23     1    23    1.2551E+01  3.5629E-03   1.2548E+01  0.000E+00  0.000E+00  0.000E+00  1.35948E+02  2.698E+00  5.041E+00  1.114E-03  4.217E-03 -6.538E-04
   1    4   24     1    24    1.2548E+01  3.5621E-03   1.2544E+01  0.000E+00  0.000E+00  0.000E+00  1.35648E+02  2.698E+00  5.040E+00  1.114E-03  4.294E-03 -7.318E-04
   1    4   25     1    25    1.2544E+01  3.5613E-03   1.2541E+01  0.000E+00  0.000E+00  0.000E+00  1.35347E+02  2.697E+00  5.040E+00  1.114E-03  4.377E-03 -8.160E-04
   1    4   26     1    26    1.2541E+01  3.5604E-03   1.2537E+01  0.000E+00  0.000E+00  0.000E+00  1.35047E+02  2.697E+00  5.039E+00  1.114E-03  4.452E-03 -8.917E-04
   1    4   27     1    27    1.2537E+01  3.5596E-03   1.2534E+01  0.000E+00  0.000E+00  0.000E+00  1.34747E+02  2.697E+00  5.039E+00  1.114E-03  4.526E-03 -9.667E-04
   1    4   28     1    28    1.2534E+01  3.5588E-03   1.2530E+01  0.000E+00  0.000E+00  0.000E+00  1.34446E+02  2.696E+00  5.038E+00  1.113E-03  4.540E-03 -9.817E-04
   1    4   29     1    29    1.2530E+01  3.5580E-03   1.2526E+01  0.000E+00  0.000E+00  0.000E+00  1.34146E+02  2.696E+00  5.038E+00  1.113E-03  4.555E-03 -9.970E-04
   1    4   30     1    30    1.2526E+01  3.5571E-03   1.2523E+01  0.000E+00  0.000E+00  0.000E+00  1.33845E+02  2.695E+00  5.037E+00  1.113E-03  4.572E-03 -1.013E-03
   1    4   31     1    31    1.2523E+01  3.5563E-03   1.2519E+01  0.000E+00  0.000E+00  0.000E+00  1.33545E+02  2.695E+00  5.037E+00  1.113E-03  4.571E-03 -1.013E-03
   1    4   32     1    32    1.2519E+01  3.5555E-03   1.2516E+01  0.000E+00  0.000E+00  0.000E+00  1.33245E+02  2.695E+00  5.036E+00  1.113E-03  4.568E-03 -1.011E-03
   1    4   33     1    33    1.2516E+01  3.5547E-03   1.2512E+01  0.000E+00  0.000E+00  0.000E+00  1.32944E+02  2.694E+00  5.036E+00  1.113E-03  4.566E-03 -1.009E-03
   1    4   34     1    34    1.2512E+01  3.5538E-03   1.2509E+01  0.000E+00  0.000E+00  0.000E+00  1.32644E+02  2.694E+00  5.035E+00  1.113E-03  4.563E-03 -1.007E-03
   1    4   35     1    35    1.2509E+01  3.5530E-03   1.2505E+01  0.000E+00  0.000E+00  0.000E+00  1.32343E+02  2.693E+00  5.035E+00  1.113E-03  4.560E-03 -1.005E-03
   1    4   36     1    36    1.2505E+01  3.5522E-03   1.2502E+01  0.000E+00  0.000E+00  0.000E+00  1.32043E+02  2.693E+00  5.035E+00  1.112E-03  4.558E-03 -1.003E-03
   1    4   37     1    37    1.2502E+01  3.5514E-03   1.2498E+01  0.000E+00  0.000E+00  0.000E+00  1.31743E+02  2.693E+00  5.034E+00  1.112E-03  4.555E-03 -1.001E-03
   1    4   38     1    38    1.2498E+01  3.5505E-03   1.2494E+01  0.000E+00  0.000E+00  0.000E+00  1.31442E+02  2.692E+00  5.034E+00  1.112E-03  4.551E-03 -9.984E-04
   1    4   39     1    39    1.2494E+01  3.5497E-03   1.2491E+01  0.000E+00  0.000E+00  0.000E+00  1.31142E+02  2.692E+00  5.033E+00  1.112E-03  4.547E-03 -9.957E-04
   1    4   40     1    40    1.2491E+01  3.5489E-03   1.2487E+01  0.000E+00  0.000E+00  0.000E+00  1.30842E+02  2.692E+00  5.033E+00  1.112E-03  4.593E-03 -1.042E-03
   1    4   41     1    41    1.2487E+01  3.5481E-03   1.2484E+01  0.000E+00  0.000E+00  0.000E+00  1.30541E+02  2.691E+00  5.032E+00  1.112E-03  4.762E-03 -1.212E-03
   1    4   42     1    42    1.2484E+01  3.5472E-03   1.2480E+01  0.000E+00  0.000E+00  0.000E+00  1.30241E+02  2.691E+00  5.032E+00  1.112E-03  4.946E-03 -1.396E-03
   1    4   43     1    43    1.2480E+01  3.5464E-03   1.2477E+01  0.000E+00  0.000E+00  0.000E+00  1.29940E+02  2.690E+00  5.031E+00  1.112E-03  4.999E-03 -1.450E-03
   1    4   44     1    44    1.2477E+01  3.5456E-03   1.2473E+01  0.000E+00  0.000E+00  0.000E+00  1.29640E+02  2.690E+00  5.031E+00  1.111E-03  4.998E-03 -1.450E-03
   1    4   45     1    45    1.2473E+01  3.5448E-03   1.2470E+01  0.000E+00  0.000E+00  0.000E+00  1.29340E+02  2.690E+00  5.030E+00  1.111E-03  4.997E-03 -1.450E-03
   1    4   46     1    46    1.2470E+01  3.5439E-03   1.2466E+01  0.000E+00  0.000E+00  0.000E+00  1.29039E+02  2.689E+00  5.030E+00  1.111E-03  4.995E-03 -1.449E-03
   1    4   47     1    47    1.2466E+01  3.5431E-03   1.2463E+01  0.000E+00  0.000E+00  0.000E+00  1.28739E+02  2.689E+00  5.030E+00  1.111E-03  4.993E-03 -1.448E-03
   1    4   48     1    48    1.2463E+01  3.5423E-03   1.2459E+01  0.000E+00  0.000E+00  0.000E+00  1.28438E+02  2.688E+00  5.029E+00  1.111E-03  5.207E-03 -1.663E-03
   1    4   49     1    49    1.2459E+01  3.5415E-03   1.2455E+01  0.000E+00  0.000E+00  0.000E+00  1.28138E+02  2.688E+00  5.029E+00  1.111E-03  5.550E-03 -2.006E-03
   1    4   50     1    50    1.2455E+01  3.5406E-03   1.2452E+01  0.000E+00  0.000E+00  0.000E+00  1.27838E+02  2.688E+00  5.028E+00  1.111E-03  5.664E-03 -2.121E-03
   1    4   51     1    51    1.2452E+01  3.5398E-03   1.2448E+01  0.000E+00  0.000E+00  0.000E+00  1.27537E+02  2.687E+00  5.028E+00  1.111E-03  5.521E-03 -1.979E-03
   1    4   52     1    52    1.2448E+01  3.5390E-03   1.2445E+01  0.000E+00  0.000E+00  0.000E+00  1.27237E+02  2.687E+00  5.027E+00  1.110E-03  5.504E-03 -1.963E-03
   1    4   53     1    53    1.2445E+01  3.5382E-03   1.2441E+01  0.000E+00  0.000E+00  0.000E+00  1.26937E+02  2.687E+00  5.027E+00  1.110E-03  5.499E-03 -1.959E-03
   1    4   54     1    54    1.2441E+01  3.5374E-03   1.2438E+01  0.000E+00  0.000E+00  0.000E+00  1.26636E+02  2.686E+00  5.026E+00  1.110E-03  5.508E-03 -1.968E-03
   1    4   55     1    55    1.2438E+01  3.5365E-03   1.2434E+01  0.000E+00  0.000E+00  0.000E+00  1.26336E+02  2.686E+00  5.026E+00  1.110E-03  5.671E-03 -2.133E-03
   1    4   56     1    56    1.2434E+01  3.5357E-03   1.2431E+01  0.000E+00  0.000E+00  0.000E+00  1.26035E+02  2.685E+00  5.025E+00  1.110E-03  5.520E-03 -1.983E-03
   1    4   57     1    57    1.2431E+01  3.5349E-03   1.2427E+01  0.000E+00  0.000E+00  0.000E+00  1.25735E+02  2.685E+00  5.025E+00  1.110E-03  5.190E-03 -1.653E-03
   1    4   58     1    58    1.2427E+01  3.5341E-03   1.2424E+01  0.000E+00  0.000E+00  0.000E+00  1.25435E+02  2.685E+00  5.025E+00  1.110E-03  4.948E-03 -1.412E-03
   1    4   59     1    59    1.2424E+01  3.5333E-03   1.2420E+01  0.000E+00  0.000E+00  0.000E+00  1.25134E+02  2.684E+00  5.024E+00  1.110E-03  4.943E-03 -1.408E-03
   1    4   60     1    60    1.2420E+01  3.5324E-03   1.2417E+01  0.000E+00  0.000E+00  0.000E+00  1.24834E+02  2.684E+00  5.024E+00  1.109E-03  4.939E-03 -1.404E-03
   1    4   61     1    61    1.2417E+01  3.5316E-03   1.2413E+01  0.000E+00  0.000E+00  0.000E+00  1.24534E+02  2.684E+00  5.023E+00  1.109E-03  4.934E-03 -1.400E-03
   1    4   62     1    62    1.2413E+01  3.5308E-03   1.2410E+01  0.000E+00  0.000E+00  0.000E+00  1.24233E+02  2.683E+00  5.023E+00  1.109E-03  4.929E-03 -1.396E-03
   1    4   63     1    63    1.2410E+01  3.5300E-03   1.2406E+01  0.000E+00  0.000E+00  0.000E+00  1.23933E+02  2.683E+00  5.022E+00  1.109E-03  4.884E-03 -1.352E-03
   1    4   64     1    64    1.2406E+01  3.5291E-03   1.2402E+01  0.000E+00  0.000E+00  0.000E+00  1.23632E+02  2.682E+00  5.022E+00  1.109E-03  4.687E-03 -1.156E-03
   1    4   65     1    65    1.2402E+01  3.5283E-03   1.2399E+01  0.000E+00  0.000E+00  0.000E+00  1.23332E+02  2.682E+00  5.021E+00  1.109E-03  4.505E-03 -9.746E-04
   1    4   66     1    66    1.2399E+01  3.5275E-03   1.2395E+01  0.000E+00  0.000E+00  0.000E+00  1.23032E+02  2.682E+00  5.021E+00  1.109E-03  4.457E-03 -9.277E-04
   1    4   67     1    67    1.2395E+01  3.5267E-03   1.2392E+01  0.000E+00  0.000E+00  0.000E+00  1.22731E+02  2.681E+00  5.020E+00  1.109E-03  4.456E-03 -9.273E-04
   1    4   68     1    68    1.2392E+01  3.5259E-03   1.2388E+01  0.000E+00  0.000E+00  0.000E+00  1.22431E+02  2.681E+00  5.020E+00  1.108E-03  4.455E-03 -9.271E-04
   1    4   69     1    69    1.2388E+01  3.5250E-03   1.2385E+01  0.000E+00  0.000E+00  0.000E+00  1.22130E+02  2.680E+00  5.019E+00  1.108E-03  4.453E-03 -9.261E-04
   1    4   70     1    70    1.2385E+01  3.5242E-03   1.2381E+01  0.000E+00  0.000E+00  0.000E+00  1.21830E+02  2.680E+00  5.019E+00  1.108E-03  4.451E-03 -9.251E-04
   1    4   71     1    71    1.2381E+01  3.5234E-03   1.2378E+01  0.000E+00  0.000E+00  0.000E+00  1.21530E+02  2.680E+00  5.019E+00  1.108E-03  4.450E-03 -9.244E-04
   1    4   72     1    72    1.2378E+01  3.5226E-03   1.2374E+01  0.000E+00  0.000E+00  0.000E+00  1.21229E+02  2.679E+00  5.018E+00  1.108E-03  4.448E-03 -9.237E-04
   1    4   73     1    73    1.2374E+01  3.5218E-03   1.2371E+01  0.000E+00  0.000E+00  0.000E+00  1.20929E+02  2.679E+00  5.018E+00  1.108E-03  4.447E-03 -9.232E-04
   1    4   74     1    74    1.2371E+01  3.5210E-03   1.2367E+01  0.000E+00  0.000E+00  0.000E+00  1.20629E+02  2.679E+00  5.017E+00  1.108E-03  4.446E-03 -9.228E-04
   1    4   75     1    75    1.2367E+01  3.5201E-03   1.2364E+01  0.000E+00  0.000E+00  0.000E+00  1.20328E+02  2.678E+00  5.017E+00  1.108E-03  4.444E-03 -9.224E-04
   1    4   76     1    76    1.2364E+01  3.5193E-03   1.2360E+01  0.000E+00  0.000E+00  0.000E+00  1.20028E+02  2.678E+00  5.016E+00  1.107E-03  4.443E-03 -9.224E-04
   1    4   77     1    77    1.2360E+01  3.5185E-03   1.2357E+01  0.000E+00  0.000E+00  0.000E+00  1.19727E+02  2.677E+00  5.016E+00  1.107E-03  4.433E-03 -9.134E-04
   1    4   78     1    78    1.2357E+01  3.5177E-03   1.2353E+01  0.000E+00  0.000E+00  0.000E+00  1.19427E+02  2.677E+00  5.015E+00  1.107E-03  4.332E-03 -8.134E-04
   1    4   79     1    79    1.2353E+01  3.5169E-03   1.2350E+01  0.000E+00  0.000E+00  0.000E+00  1.19127E+02  2.677E+00  5.015E+00  1.107E-03  4.236E-03 -7.191E-04
   1    4   80     1    80    1.2350E+01  3.5160E-03   1.2346E+01  0.000E+00  0.000E+00  0.000E+00  1.18826E+02  2.676E+00  5.014E+00  1.107E-03  4.148E-03 -6.316E-04
   1    4   81     1    81    1.2346E+01  3.5152E-03   1.2343E+01  0.000E+00  0.000E+00  0.000E+00  1.18526E+02  2.676E+00  5.014E+00  1.107E-03  4.066E-03 -5.511E-04
   1    4   82     1    82    1.2343E+01  3.5144E-03   1.2339E+01  0.000E+00  0.000E+00  0.000E+00  1.18226E+02  2.675E+00  5.014E+00  1.107E-03  4.054E-03 -5.397E-04
   1    4   83     1    83    1.2339E+01  3.5136E-03   1.2336E+01  0.000E+00  0.000E+00  0.000E+00  1.17925E+02  2.675E+00  5.013E+00  1.107E-03  4.054E-03 -5.402E-04
   1    4   84     1    84    1.2336E+01  3.5128E-03   1.2332E+01  0.000E+00  0.000E+00  0.000E+00  1.17625E+02  2.675E+00  5.013E+00  1.106E-03  4.042E-03 -5.288E-04
   1    4   85     1    85    1.2332E+01  3.5120E-03   1.2329E+01  0.000E+00  0.000E+00  0.000E+00  1.17324E+02  2.674E+00  5.012E+00  1.106E-03  4.031E-03 -5.190E-04
   1    4   86     1    86    1.2329E+01  3.5111E-03   1.2325E+01  0.000E+00  0.000E+00  0.000E+00  1.17024E+02  2.674E+00  5.012E+00  1.106E-03  4.022E-03 -5.106E-04
   1    4   87     1    87    1.2325E+01  3.5103E-03   1.2322E+01  0.000E+00  0.000E+00  0.000E+00  1.16724E+02  2.674E+00  5.011E+00  1.106E-03  4.014E-03 -5.038E-04
   1    4   88     1    88    1.2322E+01  3.5095E-03   1.2318E+01  0.000E+00  0.000E+00  0.000E+00  1.16423E+02  2.673E+00  5.011E+00  1.106E-03  4.008E-03 -4.984E-04
   1    4   89     1    89    1.2318E+01  3.5087E-03   1.2315E+01  0.000E+00  0.000E+00  0.000E+00  1.16123E+02  2.673E+00  5.010E+00  1.106E-03  4.003E-03 -4.947E-04
   1    4   90     1    90    1.2315E+01  3.5079E-03   1.2311E+01  0.000E+00  0.000E+00  0.000E+00  1.15822E+02  2.672E+00  5.010E+00  1.106E-03  4.001E-03 -4.929E-04
   1    4   91     1    91    1.2311E+01  3.5071E-03   1.2307E+01  0.000E+00  0.000E+00  0.000E+00  1.15522E+02  2.672E+00  5.009E+00  1.106E-03  4.000E-03 -4.930E-04
   1    4   92     1    92    1.2307E+01  3.5062E-03   1.2304E+01  0.000E+00  0.000E+00  0.000E+00  1.15222E+02  2.672E+00  5.009E+00  1.105E-03  4.002E-03 -4.953E-04
   1    4   93     1    93    1.2304E+01  3.5054E-03   1.2300E+01  0.000E+00  0.000E+00  0.000E+00  1.14921E+02  2.671E+00  5.009E+00  1.105E-03  4.005E-03 -4.998E-04
   1    4   94     1    94    1.2300E+01  3.5046E-03   1.2297E+01  0.000E+00  0.000E+00  0.000E+00  1.14621E+02  2.671E+00  5.008E+00  1.105E-03  4.011E-03 -5.067E-04
   1    4   95     1    95    1.2297E+01  3.5038E-03   1.2293E+01  0.000E+00  0.000E+00  0.000E+00  1.14321E+02  2.671E+00  5.008E+00  1.105E-03  4.020E-03 -5.162E-04
   1    4   96     1    96    1.2293E+01  3.5030E-03   1.2290E+01  0.000E+00  0.000E+00  0.000E+00  1.14020E+02  2.670E+00  5.007E+00  1.105E-03  4.031E-03 -5.284E-04
   1    4   97     1    97    1.2290E+01  3.5022E-03   1.2286E+01  0.000E+00  0.000E+00  0.000E+00  1.13720E+02  2.670E+00  5.007E+00  1.105E-03  4.045E-03 -5.432E-04
   1    4   98     1    98    1.2286E+01  3.5013E-03   1.2283E+01  0.000E+00  0.000E+00  0.000E+00  1.13419E+02  2.669E+00  5.006E+00  1.105E-03  4.062E-03 -5.606E-04
   1    4   99     1    99    1.2283E+01  3.5005E-03   1.2279E+01  0.000E+00  0.000E+00  0.000E+00  1.13119E+02  2.669E+00  5.006E+00  1.105E-03  4.081E-03 -5.805E-04
   1    4  100     1   100    1.2279E+01  3.4997E-03   1.2276E+01  0.000E+00  0.000E+00  0.000E+00  1.12819E+02  2.669E+00  5.005E+00  1.104E-03  4.103E-03 -6.030E-04



1
  VOLUMETRIC BUDGET FOR UNSATURATED ZONE BENEATH STREAMS AT END OF TIME STEP    30 STRESS PERIOD  21
  ------------------------------------------------------------------------------------------------

    CUMULATIVE VOLUMES             L**3    RATES FOR THIS TIME STEP         L**3/T
    ------------------                     ------------------------


          STREAM LOSS =     26169852.0000            STREAM LOSS =            0.3540
    CHANGE IN STORAGE =      2019760.1250      CHANGE IN STORAGE =       -9.2720E-02
       RECHARGE TO GW =     24156372.0000         RECHARGE TO GW =            0.4468

             TOTAL IN =     26169852.0000               TOTAL IN =            0.4468

            TOTAL OUT =     26176132.0000              TOTAL OUT =            0.4468

             IN - OUT =        -6280.0000               IN - OUT =       -9.5278E-05

  PERCENT DISCREPANCY =           -0.01      PERCENT DISCREPANCY =            -0.01



1
  VOLUMETRIC BUDGET FOR ENTIRE MODEL AT END OF TIME STEP   30, STRESS PERIOD  21
  ------------------------------------------------------------------------------

     CUMULATIVE VOLUMES      L**3       RATES FOR THIS TIME STEP      L**3/T
     ------------------                 ------------------------

           IN:                                      IN:
           ---                                      ---
             STORAGE     =    82446664.0000               STORAGE     =           0.6484
       CONSTANT HEAD     =           0.0000         CONSTANT HEAD     =           0.0000
               WELLS     =           0.0000                 WELLS     =           0.0000
     HEAD DEP BOUNDS     =           0.0000       HEAD DEP BOUNDS     =           0.0000
      STREAM LEAKAGE     =    24156252.0000        STREAM LEAKAGE     =           0.4468

                TOTAL IN =   106602912.0000                  TOTAL IN =           1.0953

          OUT:                                     OUT:
          ----                                     ----
             STORAGE     =     2982161.0000               STORAGE     =           0.0000
       CONSTANT HEAD     =           0.0000         CONSTANT HEAD     =           0.0000
               WELLS     =    87698192.0000                 WELLS     =           1.0083
     HEAD DEP BOUNDS     =    15922721.0000       HEAD DEP BOUNDS     =       8.6966E-02
      STREAM LEAKAGE     =           0.0000        STREAM LEAKAGE     =           0.0000

               TOTAL OUT =   106603072.0000                 TOTAL OUT =           1.0953

                IN - OUT =        -160.0000                  IN - OUT =       1.1921E-07

     PERCENT DISCREPANCY =          -0.00         PERCENT DISCREPANCY =           0.00






         TIME SUMMARY AT END OF TIME STEP   30 IN STRESS PERIOD   21
                    SECONDS     MINUTES      HOURS       DAYS        YEARS
                    -----------------------------------------------------------
   TIME STEP LENGTH 2.49961E+05  4166.0      69.434      2.8931     7.92080E-03
 STRESS PERIOD TIME 2.59200E+06  43200.      720.00      30.000     8.21355E-02
         TOTAL TIME 5.44320E+07 9.07199E+05  15120.      630.00      1.7248    
1
1
                            STRESS PERIOD NO.   22, LENGTH =   2592000.    
                            -----------------------------------------------

                              NUMBER OF TIME STEPS =    30

                               MULTIPLIER FOR DELT =     1.100

                            INITIAL TIME STEP SIZE =   15757.40    

 REUSING NON-PARAMETER WELLS FROM LAST STRESS PERIOD

      1 WELL 

 REUSING NON-PARAMETER GHB CELLS FROM LAST STRESS PERIOD

      7 GHB CELLS



 CLASSIFICATION & COUNT OF STREAM SEGMENTS BASED ON SOURCE OF INFLOW:

                HEADWATER     DIVERSION     RECEIVES TRIBUTARY FLOW
                ---------     ---------     -----------------------
                     1              0               0



                    INPUT DATA FOR EACH STREAM SEGMENT
 ---------------------------------------------------------------------------------------------

 SEGMENT    SEG.     INFLOW   OVERLAND   STREAM    STREAM   ICALC  OUTFLOW  DIVERSION PRIORITY
    NO.    LENGTH     RATE     RUNOFF      ET       PPT.    METH.  TO SEG.  FROM SEG.    NO.

      1  2.000E+04 5.816E+00 0.000E+00 0.000E+00 0.000E+00    2        0        0        0


         STREAMBED PROPERTIES AND STREAM DIMENSIONS

 SEGMENT     BED HYD. COND.      BED THICKNESS     ELEV.-TOP OF BED     WIDTH OF STREAM     DEPTH OF STREAM    STREAM ROUGHNESS
    No.     UPPER     LOWER     UPPER     LOWER     UPPER     LOWER     UPPER     LOWER     UPPER     LOWER   CHANNEL      BANK

     1  3.500E-07 3.500E-07                                                                                 3.000E-02 4.000E-02

  EIGHT POINT CROSS-SECTION DATA FOR SEGMENTS WITH ICALC = 2
    X VALUES X VALUES START FROM LEFT SIDE LOOKING DOWNSTREAM

     SEGMENT NO.        X1        X2        X3        X4        X5        X6        X7        X8
            1      0.000E+00 2.000E+00 4.000E+00 6.000E+00 8.000E+00 1.000E+01 1.200E+01 1.400E+01

    Z VALUES ARE RELATIVE TO STREAMBED ELEVATION

     SEGMENT NO.          Z1        Z2        Z3        Z4        Z5        Z6        Z7        Z8
            1      6.000E+00 4.500E+00 3.500E+00 0.000E+00 3.000E-01 3.500E+00 4.500E+00 6.000E+00



 
 SOLVING FOR HEAD 
                                                   Max.-Head-Change                         Max.-Flux-Residual
  Residual-Control   Outer-Iter.   Inner-Iter.     Column Row Layer    Maximum-Head-Change  Column Row Layer    Maximum-Flux-Residual          L2-NORM 
          0                 1           2            50    3     1       0.4288182588E+00      50    3    1         0.1609648854E+00      0.2123492333E+00
          0                 2           2            50    3     1      -0.4322231903E-01      50    3    1        -0.1672689779E-01      0.2226973427E-01
          0                 3           2            50    3     1       0.3869980237E-02      50    3    1         0.1502387125E-02      0.1995238501E-02
          0                 4           2            50    3     1      -0.3063934659E-03      50    3    1        -0.1203266375E-03      0.1599505417E-03
          0                 5           1            50    3     1       0.2137557004E-04      50    3    1         0.8461340324E-05      0.1124322987E-04
          0                 6           1            50    3     1      -0.1282319536E-05      50    3    1        -0.5125876897E-06      0.6812687401E-06
          0                 7           1            50    3     1       0.6484123739E-07      50    3    1         0.2614347611E-07      0.3474147329E-07

    ------------------------------------------------
       NWT REQUIRED            7 OUTER ITERATIONS 
       AND A TOTAL OF         11 INNER ITERATIONS.
    ------------------------------------------------

 NO OUTPUT CONTROL FOR STRESS PERIOD   22   TIME STEP    1
 
 WELLS WITH REDUCED PUMPING FOR STRESS PERIOD    22 TIME STEP     1
   LAY   ROW   COL         APPL.Q          ACT.Q        GW-HEAD       CELL-BOT
     1     3    50  -0.100087E+01  -0.436314E+00   0.512048E+01   0.000000E+00
     1     5    55  -0.100087E+01  -0.369078E+00   0.456857E+01   0.000000E+00
 
 
 SOLVING FOR HEAD 
                                                   Max.-Head-Change                         Max.-Flux-Residual
  Residual-Control   Outer-Iter.   Inner-Iter.     Column Row Layer    Maximum-Head-Change  Column Row Layer    Maximum-Flux-Residual          L2-NORM 
          0                 1           2            50    3     1       0.2553337189E+00      50    3    1         0.8932270171E-01      0.1209189713E+00
          0                 2           2            50    3     1      -0.2478414762E-01      50    3    1        -0.9085601051E-02      0.1239966782E-01
          0                 3           2            50    3     1       0.2238150682E-02      50    3    1         0.8178475049E-03      0.1111748909E-02
          0                 4           2            50    3     1      -0.1766845559E-03      50    3    1        -0.6546303385E-04      0.8916824254E-04
          0                 5           1            50    3     1       0.1234146839E-04      50    3    1         0.4604682636E-05      0.6268052033E-05
          0                 6           1            50    3     1      -0.7399207344E-06      50    3    1        -0.2789001148E-06      0.3798117922E-06

    ------------------------------------------------
       NWT REQUIRED            6 OUTER ITERATIONS 
       AND A TOTAL OF         10 INNER ITERATIONS.
    ------------------------------------------------

 NO OUTPUT CONTROL FOR STRESS PERIOD   22   TIME STEP    2
 
 WELLS WITH REDUCED PUMPING FOR STRESS PERIOD    22 TIME STEP     2
   LAY   ROW   COL         APPL.Q          ACT.Q        GW-HEAD       CELL-BOT
     1     3    50  -0.999934E+00  -0.466923E+00   0.535310E+01   0.000000E+00
     1     5    55  -0.999934E+00  -0.395350E+00   0.477066E+01   0.000000E+00
 
 
 SOLVING FOR HEAD 
                                                   Max.-Head-Change                         Max.-Flux-Residual
  Residual-Control   Outer-Iter.   Inner-Iter.     Column Row Layer    Maximum-Head-Change  Column Row Layer    Maximum-Flux-Residual          L2-NORM 
          0                 1           2            50    3     1       0.1497128687E+00      50    3    1         0.4824637671E-01      0.7017359992E-01
          0                 2           2            50    3     1      -0.1408466182E-01      50    3    1        -0.4864762731E-02      0.7090914515E-02
          0                 3           2            50    3     1       0.1280864437E-02      50    3    1         0.4383855558E-03      0.6371735080E-03
          0                 4           1            50    3     1      -0.1009291896E-03      50    3    1        -0.3507670630E-04      0.5117705423E-04
          0                 5           1            50    3     1       0.7053228808E-05      50    3    1         0.2467629417E-05      0.3598510586E-05
          0                 6           1            50    3     1      -0.4228397570E-06      50    3    1        -0.1494551238E-06      0.2180515012E-06

    ------------------------------------------------
       NWT REQUIRED            6 OUTER ITERATIONS 
       AND A TOTAL OF          9 INNER ITERATIONS.
    ------------------------------------------------

 NO OUTPUT CONTROL FOR STRESS PERIOD   22   TIME STEP    3
 
 WELLS WITH REDUCED PUMPING FOR STRESS PERIOD    22 TIME STEP     3
   LAY   ROW   COL         APPL.Q          ACT.Q        GW-HEAD       CELL-BOT
     1     3    50  -0.100008E+01  -0.485297E+00   0.548991E+01   0.000000E+00
     1     5    55  -0.100008E+01  -0.411280E+00   0.489012E+01   0.000000E+00
 
 
 SOLVING FOR HEAD 
                                                   Max.-Head-Change                         Max.-Flux-Residual
  Residual-Control   Outer-Iter.   Inner-Iter.     Column Row Layer    Maximum-Head-Change  Column Row Layer    Maximum-Flux-Residual          L2-NORM 
          0                 1           2            50    3     1       0.8844031871E-01      50    3    1         0.2589749612E-01      0.4486228868E-01
          0                 2           2            50    3     1      -0.8060082013E-02      50    3    1        -0.2600624063E-02      0.4480373378E-02
          0                 3           2            50    3     1       0.7372878238E-03      50    3    1         0.2345291152E-03      0.4061384055E-03
          0                 4           1            50    3     1      -0.5804675148E-04      50    3    1        -0.1876128612E-04      0.3274801473E-04
          0                 5           1            50    3     1       0.4056072079E-05      50    3    1         0.1319859054E-05      0.2305284110E-05
          0                 6           1            50    3     1      -0.2432177027E-06      50    3    1        -0.7994242945E-07      0.1397223394E-06

    ------------------------------------------------
       NWT REQUIRED            6 OUTER ITERATIONS 
       AND A TOTAL OF          9 INNER ITERATIONS.
    ------------------------------------------------

 NO OUTPUT CONTROL FOR STRESS PERIOD   22   TIME STEP    4
 
 WELLS WITH REDUCED PUMPING FOR STRESS PERIOD    22 TIME STEP     4
   LAY   ROW   COL         APPL.Q          ACT.Q        GW-HEAD       CELL-BOT
     1     3    50  -0.999947E+00  -0.496087E+00   0.557098E+01   0.000000E+00
     1     5    55  -0.999947E+00  -0.420653E+00   0.496078E+01   0.000000E+00
 
 
 SOLVING FOR HEAD 
                                                   Max.-Head-Change                         Max.-Flux-Residual
  Residual-Control   Outer-Iter.   Inner-Iter.     Column Row Layer    Maximum-Head-Change  Column Row Layer    Maximum-Flux-Residual          L2-NORM 
          0                 1           2            50    3     1       0.5299952374E-01      50    3    1         0.1385432155E-01      0.3350556178E-01
          0                 2           2            50    3     1      -0.4667247490E-02      50    3    1        -0.1387735186E-02      0.3328681752E-02
          0                 3           2            50    3     1       0.4287141434E-03      50    3    1         0.1252259890E-03      0.3067024590E-03
          0                 4           1            50    3     1      -0.3375839749E-04      50    3    1        -0.1001676142E-04      0.2489624271E-04
          0                 5           1            50    3     1       0.2357663015E-05      50    3    1         0.7046132202E-06      0.1756676516E-05
          0                 6           1            50    3     1      -0.1414273609E-06      50    3    1        -0.4268139930E-07      0.1065309476E-06

    ------------------------------------------------
       NWT REQUIRED            6 OUTER ITERATIONS 
       AND A TOTAL OF          9 INNER ITERATIONS.
    ------------------------------------------------

 NO OUTPUT CONTROL FOR STRESS PERIOD   22   TIME STEP    5
 
 WELLS WITH REDUCED PUMPING FOR STRESS PERIOD    22 TIME STEP     5
   LAY   ROW   COL         APPL.Q          ACT.Q        GW-HEAD       CELL-BOT
     1     3    50  -0.100007E+01  -0.502674E+00   0.561971E+01   0.000000E+00
     1     5    55  -0.100007E+01  -0.426333E+00   0.500287E+01   0.000000E+00
 
 
 SOLVING FOR HEAD 
                                                   Max.-Head-Change                         Max.-Flux-Residual
  Residual-Control   Outer-Iter.   Inner-Iter.     Column Row Layer    Maximum-Head-Change  Column Row Layer    Maximum-Flux-Residual          L2-NORM 
          0                 1           2            50    2     1       0.3867106558E-01      50    3    1         0.7667440782E-02      0.2897344540E-01
          0                 2           2            50    2     1      -0.3786206901E-02      50    3    1        -0.7665646693E-03      0.2886009542E-02
          0                 3           2            50    2     1       0.3384679799E-03      50    3    1         0.6920251523E-04      0.2701725297E-03
          0                 4           1            50    2     1      -0.2685030073E-04      50    3    1        -0.5536088176E-05      0.2208642472E-04
          0                 5           1            50    2     1       0.1870712561E-05      50    3    1         0.3893576677E-06      0.1562995718E-05
          0                 6           1            50    2     1      -0.1123244803E-06      50    3    1        -0.2358736684E-07      0.9486352878E-07

    ------------------------------------------------
       NWT REQUIRED            6 OUTER ITERATIONS 
       AND A TOTAL OF          9 INNER ITERATIONS.
    ------------------------------------------------

 NO OUTPUT CONTROL FOR STRESS PERIOD   22   TIME STEP    6
 
 WELLS WITH REDUCED PUMPING FOR STRESS PERIOD    22 TIME STEP     6
   LAY   ROW   COL         APPL.Q          ACT.Q        GW-HEAD       CELL-BOT
     1     3    50  -0.999942E+00  -0.506732E+00   0.565048E+01   0.000000E+00
     1     5    55  -0.999942E+00  -0.429779E+00   0.502902E+01   0.000000E+00
 
 
 SOLVING FOR HEAD 
                                                   Max.-Head-Change                         Max.-Flux-Residual
  Residual-Control   Outer-Iter.   Inner-Iter.     Column Row Layer    Maximum-Head-Change  Column Row Layer    Maximum-Flux-Residual          L2-NORM 
          0                 1           2            50    2     1       0.3362421255E-01      50    2    1         0.4993208224E-02      0.2702635074E-01
          0                 2           2            50    2     1      -0.3295042614E-02      50    2    1        -0.5006051596E-03      0.2703088872E-02
          0                 3           2            50    2     1       0.2943415815E-03      50    2    1         0.4504021743E-04      0.2560912280E-03
          0                 4           1            50    2     1      -0.2335563430E-04      50    2    1        -0.3607833863E-05      0.2107640624E-04
          0                 5           1            50    2     1       0.1627089456E-05      50    2    1         0.2536265145E-06      0.1496369502E-05
          0                 6           1            50    2     1      -0.9769901697E-07      50    2    1        -0.1536876817E-07      0.9092050383E-07

    ------------------------------------------------
       NWT REQUIRED            6 OUTER ITERATIONS 
       AND A TOTAL OF          9 INNER ITERATIONS.
    ------------------------------------------------

 NO OUTPUT CONTROL FOR STRESS PERIOD   22   TIME STEP    7
 
 WELLS WITH REDUCED PUMPING FOR STRESS PERIOD    22 TIME STEP     7
   LAY   ROW   COL         APPL.Q          ACT.Q        GW-HEAD       CELL-BOT
     1     3    50  -0.100003E+01  -0.509480E+00   0.567068E+01   0.000000E+00
     1     5    55  -0.100003E+01  -0.432060E+00   0.504576E+01   0.000000E+00
 
 
 SOLVING FOR HEAD 
                                                   Max.-Head-Change                         Max.-Flux-Residual
  Residual-Control   Outer-Iter.   Inner-Iter.     Column Row Layer    Maximum-Head-Change  Column Row Layer    Maximum-Flux-Residual          L2-NORM 
          0                 1           2            50    2     1       0.2902463596E-01      50    2    1         0.3946494043E-02      0.2611302737E-01
          0                 2           2            50    2     1      -0.2845524625E-02      50    2    1        -0.3957106029E-03      0.2617787379E-02
          0                 3           2            50    2     1       0.2540235557E-03      50    2    1         0.3560249288E-04      0.2502771694E-03
          0                 4           1            50    2     1      -0.2015977076E-04      50    2    1        -0.2851850790E-05      0.2073112853E-04
          0                 5           1            50    2     1       0.1404374120E-05      50    2    1         0.2004817728E-06      0.1476989939E-05
          0                 6           1            50    2     1      -0.8432644899E-07      50    2    1        -0.1214840609E-07      0.8986788166E-07

    ------------------------------------------------
       NWT REQUIRED            6 OUTER ITERATIONS 
       AND A TOTAL OF          9 INNER ITERATIONS.
    ------------------------------------------------

 NO OUTPUT CONTROL FOR STRESS PERIOD   22   TIME STEP    8
 
 WELLS WITH REDUCED PUMPING FOR STRESS PERIOD    22 TIME STEP     8
   LAY   ROW   COL         APPL.Q          ACT.Q        GW-HEAD       CELL-BOT
     1     3    50  -0.100004E+01  -0.511386E+00   0.568487E+01   0.000000E+00
     1     5    55  -0.100004E+01  -0.433595E+00   0.505718E+01   0.000000E+00
 
 
 SOLVING FOR HEAD 
                                                   Max.-Head-Change                         Max.-Flux-Residual
  Residual-Control   Outer-Iter.   Inner-Iter.     Column Row Layer    Maximum-Head-Change  Column Row Layer    Maximum-Flux-Residual          L2-NORM 
          0                 1           2            50    2     1       0.2506211870E-01      50    2    1         0.3096794846E-02      0.2559654566E-01
          0                 2           2            50    2     1      -0.2457398852E-02      50    2    1        -0.3104545216E-03      0.2571048276E-02
          0                 3           2            50    2     1       0.2192474809E-03      50    2    1         0.2793263239E-04      0.2476785083E-03
          0                 4           1            50    2     1      -0.1740163145E-04      50    2    1        -0.2237469968E-05      0.2064823668E-04
          0                 5           1            50    2     1       0.1212200478E-05      50    2    1         0.1572915537E-06      0.1476709621E-05
          0                 6           1            50    2     1      -0.7278650770E-07      50    2    1        -0.9531248707E-08      0.9000588991E-07

    ------------------------------------------------
       NWT REQUIRED            6 OUTER ITERATIONS 
       AND A TOTAL OF          9 INNER ITERATIONS.
    ------------------------------------------------

 NO OUTPUT CONTROL FOR STRESS PERIOD   22   TIME STEP    9
 
 WELLS WITH REDUCED PUMPING FOR STRESS PERIOD    22 TIME STEP     9
   LAY   ROW   COL         APPL.Q          ACT.Q        GW-HEAD       CELL-BOT
     1     3    50  -0.999959E+00  -0.512777E+00   0.569557E+01   0.000000E+00
     1     5    55  -0.999959E+00  -0.434677E+00   0.506551E+01   0.000000E+00
 
 
 SOLVING FOR HEAD 
                                                   Max.-Head-Change                         Max.-Flux-Residual
  Residual-Control   Outer-Iter.   Inner-Iter.     Column Row Layer    Maximum-Head-Change  Column Row Layer    Maximum-Flux-Residual          L2-NORM 
          0                 1           2            50    1     1       0.2241718152E-01      50    2    1         0.2430873297E-02      0.2530891647E-01
          0                 2           2            50    1     1      -0.2218127833E-02      50    2    1        -0.2436302540E-03      0.2537394761E-02
          0                 3           2            50    1     1       0.1977947427E-03      50    2    1         0.2192097192E-04      0.2461279103E-03
          0                 4           1            50    1     1      -0.1569949726E-04      50    2    1        -0.1755916035E-05      0.2065976534E-04
          0                 5           1            50    1     1       0.1093408684E-05      50    2    1         0.1234389047E-06      0.1483977180E-05
          0                 6           1            50    1     1      -0.6564126426E-07      50    2    1        -0.7479911607E-08      0.9064303907E-07

    ------------------------------------------------
       NWT REQUIRED            6 OUTER ITERATIONS 
       AND A TOTAL OF          9 INNER ITERATIONS.
    ------------------------------------------------

 NO OUTPUT CONTROL FOR STRESS PERIOD   22   TIME STEP   10
 
 WELLS WITH REDUCED PUMPING FOR STRESS PERIOD    22 TIME STEP    10
   LAY   ROW   COL         APPL.Q          ACT.Q        GW-HEAD       CELL-BOT
     1     3    50  -0.100002E+01  -0.513900E+00   0.570371E+01   0.000000E+00
     1     5    55  -0.100002E+01  -0.435519E+00   0.507158E+01   0.000000E+00
 
 
 SOLVING FOR HEAD 
                                                   Max.-Head-Change                         Max.-Flux-Residual
  Residual-Control   Outer-Iter.   Inner-Iter.     Column Row Layer    Maximum-Head-Change  Column Row Layer    Maximum-Flux-Residual          L2-NORM 
          0                 1           2            50    1     1       0.2109355437E-01      50    1    1         0.1974870280E-02      0.2509135072E-01
          0                 2           2            50    1     1      -0.2088277626E-02      50    1    1        -0.1977231466E-03      0.2519911794E-02
          0                 3           2            50    1     1       0.1861810429E-03      50    1    1         0.1779271891E-04      0.2459228500E-03
          0                 4           1            50    1     1      -0.1477763074E-04      73    4    1        -0.1440144990E-05      0.2077975132E-04
          0                 5           1            50    1     1       0.1029096188E-05      75    4    1         0.1096522482E-06      0.1499457168E-05
          0                 6           1            50    1     1      -0.6177419353E-07      75    4    1        -0.6819028897E-08      0.9181666322E-07

    ------------------------------------------------
       NWT REQUIRED            6 OUTER ITERATIONS 
       AND A TOTAL OF          9 INNER ITERATIONS.
    ------------------------------------------------

 NO OUTPUT CONTROL FOR STRESS PERIOD   22   TIME STEP   11
 
 WELLS WITH REDUCED PUMPING FOR STRESS PERIOD    22 TIME STEP    11
   LAY   ROW   COL         APPL.Q          ACT.Q        GW-HEAD       CELL-BOT
     1     3    50  -0.100003E+01  -0.514766E+00   0.571014E+01   0.000000E+00
     1     5    55  -0.100003E+01  -0.436114E+00   0.507599E+01   0.000000E+00
 
 
 SOLVING FOR HEAD 
                                                   Max.-Head-Change                         Max.-Flux-Residual
  Residual-Control   Outer-Iter.   Inner-Iter.     Column Row Layer    Maximum-Head-Change  Column Row Layer    Maximum-Flux-Residual          L2-NORM 
          0                 1           2            50    1     1       0.1936487242E-01      50    1    1         0.1689237225E-02      0.2493256933E-01
          0                 2           2            50    1     1      -0.1919361916E-02      50    1    1        -0.1691530537E-03      0.2505264089E-02
          0                 3           2            50    1     1       0.1711302546E-03      50    1    1         0.1522150536E-04      0.2458659375E-03
          0                 4           1            50    1     1      -0.1358275545E-04      74    4    1        -0.1494940710E-05      0.2091716506E-04
          0                 5           1            50    1     1       0.9457434242E-06      74    4    1         0.1151324156E-06      0.1516910798E-05

    ------------------------------------------------
       NWT REQUIRED            5 OUTER ITERATIONS 
       AND A TOTAL OF          8 INNER ITERATIONS.
    ------------------------------------------------

 NO OUTPUT CONTROL FOR STRESS PERIOD   22   TIME STEP   12
 
 WELLS WITH REDUCED PUMPING FOR STRESS PERIOD    22 TIME STEP    12
   LAY   ROW   COL         APPL.Q          ACT.Q        GW-HEAD       CELL-BOT
     1     3    50  -0.999962E+00  -0.515359E+00   0.571485E+01   0.000000E+00
     1     5    55  -0.999962E+00  -0.436482E+00   0.507896E+01   0.000000E+00
 
 
 SOLVING FOR HEAD 
                                                   Max.-Head-Change                         Max.-Flux-Residual
  Residual-Control   Outer-Iter.   Inner-Iter.     Column Row Layer    Maximum-Head-Change  Column Row Layer    Maximum-Flux-Residual          L2-NORM 
          0                 1           2            73    4     1      -0.1956229203E-01      50    1    1         0.1409653565E-02      0.2483101322E-01
          0                 2           2            74    7     1       0.1773242715E-02      50    1    1        -0.1411643780E-03      0.2493063349E-02
          0                 3           2            50    1     1       0.1533951292E-03      72    4    1         0.1563802096E-04      0.2460194312E-03
          0                 4           1            50    1     1      -0.1217470484E-04      72    4    1        -0.1559663673E-05      0.2107509013E-04
          0                 5           1            50    1     1       0.8475148064E-06      76    4    1         0.1208237297E-06      0.1536373950E-05

    ------------------------------------------------
       NWT REQUIRED            5 OUTER ITERATIONS 
       AND A TOTAL OF          8 INNER ITERATIONS.
    ------------------------------------------------

 NO OUTPUT CONTROL FOR STRESS PERIOD   22   TIME STEP   13
 
 WELLS WITH REDUCED PUMPING FOR STRESS PERIOD    22 TIME STEP    13
   LAY   ROW   COL         APPL.Q          ACT.Q        GW-HEAD       CELL-BOT
     1     3    50  -0.999970E+00  -0.515872E+00   0.571865E+01   0.000000E+00
     1     5    55  -0.999970E+00  -0.436777E+00   0.508113E+01   0.000000E+00
 
 
 SOLVING FOR HEAD 
                                                   Max.-Head-Change                         Max.-Flux-Residual
  Residual-Control   Outer-Iter.   Inner-Iter.     Column Row Layer    Maximum-Head-Change  Column Row Layer    Maximum-Flux-Residual          L2-NORM 
          0                 1           2            72    4     1      -0.2169505600E-01      73    3    1        -0.1320356857E-02      0.2475156028E-01
          0                 2           2            73    7     1       0.1945106052E-02      73    3    1         0.1320231956E-03      0.2486381359E-02
          0                 3           2            73    7     1      -0.1641354601E-03      71    4    1         0.1592698987E-04      0.2465647574E-03
          0                 4           1            64    1     1       0.1270543672E-04      74    4    1        -0.1606933612E-05      0.2126314946E-04
          0                 5           1            64    1     1      -0.8786719859E-06      74    4    1         0.1262528428E-06      0.1558403642E-05

    ------------------------------------------------
       NWT REQUIRED            5 OUTER ITERATIONS 
       AND A TOTAL OF          8 INNER ITERATIONS.
    ------------------------------------------------

 NO OUTPUT CONTROL FOR STRESS PERIOD   22   TIME STEP   14
 
 WELLS WITH REDUCED PUMPING FOR STRESS PERIOD    22 TIME STEP    14
   LAY   ROW   COL         APPL.Q          ACT.Q        GW-HEAD       CELL-BOT
     1     3    50  -0.100002E+01  -0.516311E+00   0.572173E+01   0.000000E+00
     1     5    55  -0.100002E+01  -0.437002E+00   0.508264E+01   0.000000E+00
 
 
 SOLVING FOR HEAD 
                                                   Max.-Head-Change                         Max.-Flux-Residual
  Residual-Control   Outer-Iter.   Inner-Iter.     Column Row Layer    Maximum-Head-Change  Column Row Layer    Maximum-Flux-Residual          L2-NORM 
          0                 1           2            72    3     1      -0.2359346412E-01      72    5    1        -0.1318302450E-02      0.2468499667E-01
          0                 2           2            73    7     1       0.2132702101E-02      72    3    1         0.1318197865E-03      0.2480569226E-02
          0                 3           2            73    7     1      -0.1789674747E-03      71    4    1         0.1614152168E-04      0.2471385583E-03
          0                 4           1            64    1     1       0.1373036633E-04      75    4    1        -0.1661890012E-05      0.2145339910E-04
          0                 5           1            64    1     1      -0.9473337985E-06      75    4    1         0.1317966998E-06      0.1580892433E-05

    ------------------------------------------------
       NWT REQUIRED            5 OUTER ITERATIONS 
       AND A TOTAL OF          8 INNER ITERATIONS.
    ------------------------------------------------

 NO OUTPUT CONTROL FOR STRESS PERIOD   22   TIME STEP   15
 
 WELLS WITH REDUCED PUMPING FOR STRESS PERIOD    22 TIME STEP    15
   LAY   ROW   COL         APPL.Q          ACT.Q        GW-HEAD       CELL-BOT
     1     3    50  -0.100002E+01  -0.516655E+00   0.572430E+01   0.000000E+00
     1     5    55  -0.100002E+01  -0.437139E+00   0.508367E+01   0.000000E+00
 
 
 SOLVING FOR HEAD 
                                                   Max.-Head-Change                         Max.-Flux-Residual
  Residual-Control   Outer-Iter.   Inner-Iter.     Column Row Layer    Maximum-Head-Change  Column Row Layer    Maximum-Flux-Residual          L2-NORM 
          0                 1           2            71    4     1      -0.2667222514E-01      72    5    1        -0.1319918013E-02      0.2465569641E-01
          0                 2           2            72    7     1       0.2337660578E-02      72    3    1         0.1319782570E-03      0.2473913193E-02
          0                 3           2            72    7     1      -0.1950630100E-03      70    4    1         0.1663790801E-04      0.2475461237E-03
          0                 4           1            72    7     1       0.1484612817E-04      70    4    1        -0.1717293932E-05      0.2163306558E-04
          0                 5           1            64    1     1      -0.1019693347E-05      74    4    1         0.1374670742E-06      0.1603115461E-05
          0                 6           1            63    1     1       0.6095545173E-07      76    4    1        -0.8843638710E-08      0.9988272981E-07

    ------------------------------------------------
       NWT REQUIRED            6 OUTER ITERATIONS 
       AND A TOTAL OF          9 INNER ITERATIONS.
    ------------------------------------------------

 NO OUTPUT CONTROL FOR STRESS PERIOD   22   TIME STEP   16
 
 WELLS WITH REDUCED PUMPING FOR STRESS PERIOD    22 TIME STEP    16
   LAY   ROW   COL         APPL.Q          ACT.Q        GW-HEAD       CELL-BOT
     1     3    50  -0.100002E+01  -0.516924E+00   0.572631E+01   0.000000E+00
     1     5    55  -0.100002E+01  -0.437205E+00   0.508416E+01   0.000000E+00
 
 
 SOLVING FOR HEAD 
                                                   Max.-Head-Change                         Max.-Flux-Residual
  Residual-Control   Outer-Iter.   Inner-Iter.     Column Row Layer    Maximum-Head-Change  Column Row Layer    Maximum-Flux-Residual          L2-NORM 
          0                 1           2            72    7     1      -0.2861511648E-01      71    3    1        -0.1330443659E-02      0.2461201506E-01
          0                 2           2            72    7     1       0.2564217962E-02      71    3    1         0.1330256547E-03      0.2472400822E-02
          0                 3           2            72    7     1      -0.2127820186E-03      69    4    1         0.1676582513E-04      0.2483668422E-03
          0                 4           1            71    7     1       0.1611251128E-04      73    4    1        -0.1766020944E-05      0.2183850817E-04
          0                 5           1            64    1     1      -0.1095819458E-05      73    4    1         0.1420341320E-06      0.1627015136E-05
          0                 6           1            63    1     1       0.6541369627E-07      76    4    1        -0.9237448140E-08      0.1017831070E-06

    ------------------------------------------------
       NWT REQUIRED            6 OUTER ITERATIONS 
       AND A TOTAL OF          9 INNER ITERATIONS.
    ------------------------------------------------

 NO OUTPUT CONTROL FOR STRESS PERIOD   22   TIME STEP   17
 
 WELLS WITH REDUCED PUMPING FOR STRESS PERIOD    22 TIME STEP    17
   LAY   ROW   COL         APPL.Q          ACT.Q        GW-HEAD       CELL-BOT
     1     3    50  -0.999988E+00  -0.517108E+00   0.572781E+01   0.000000E+00
     1     5    55  -0.999988E+00  -0.437190E+00   0.508415E+01   0.000000E+00
 
 
 SOLVING FOR HEAD 
                                                   Max.-Head-Change                         Max.-Flux-Residual
  Residual-Control   Outer-Iter.   Inner-Iter.     Column Row Layer    Maximum-Head-Change  Column Row Layer    Maximum-Flux-Residual          L2-NORM 
          0                 1           2            70    4     1      -0.3172490849E-01      71    3    1        -0.1318683625E-02      0.2467314468E-01
          0                 2           2            71    7     1       0.2808348692E-02      71    3    1         0.1318521118E-03      0.2462040194E-02
          0                 3           2            71    7     1      -0.2317747725E-03      69    4    1         0.1695639427E-04      0.2478136895E-03
          0                 4           1            71    7     1       0.1745548044E-04      72    4    1        -0.1811012263E-05      0.2193487852E-04
          0                 5           1            71    7     1      -0.1176402993E-05      72    4    1         0.1472975129E-06      0.1644477173E-05
          0                 6           1            63    1     1       0.7003865797E-07      76    4    1        -0.9621874852E-08      0.1034024345E-06

    ------------------------------------------------
       NWT REQUIRED            6 OUTER ITERATIONS 
       AND A TOTAL OF          9 INNER ITERATIONS.
    ------------------------------------------------

 NO OUTPUT CONTROL FOR STRESS PERIOD   22   TIME STEP   18
 
 WELLS WITH REDUCED PUMPING FOR STRESS PERIOD    22 TIME STEP    18
   LAY   ROW   COL         APPL.Q          ACT.Q        GW-HEAD       CELL-BOT
     1     3    50  -0.999983E+00  -0.517222E+00   0.572868E+01   0.000000E+00
     1     5    55  -0.999983E+00  -0.437106E+00   0.508354E+01   0.000000E+00
 
 
 SOLVING FOR HEAD 
                                                   Max.-Head-Change                         Max.-Flux-Residual
  Residual-Control   Outer-Iter.   Inner-Iter.     Column Row Layer    Maximum-Head-Change  Column Row Layer    Maximum-Flux-Residual          L2-NORM 
          0                 1           2            69    4     1      -0.3525424795E-01      70    3    1        -0.1324160210E-02      0.2516904143E-01
          0                 2           2            71    1     1       0.3078222445E-02      70    3    1         0.1323968342E-03      0.2458270966E-02
          0                 3           2            71    7     1      -0.2525019818E-03      68    4    1         0.1721891436E-04      0.2467235288E-03
          0                 4           1            70    7     1       0.1890310463E-04      71    4    1        -0.1852104651E-05      0.2199973799E-04
          0                 5           1            70    7     1      -0.1267679168E-05      74    4    1         0.1523770621E-06      0.1662575014E-05
          0                 6           1            63    1     1       0.7480817259E-07      74    4    1        -0.1003146366E-07      0.1052646607E-06

    ------------------------------------------------
       NWT REQUIRED            6 OUTER ITERATIONS 
       AND A TOTAL OF          9 INNER ITERATIONS.
    ------------------------------------------------

 NO OUTPUT CONTROL FOR STRESS PERIOD   22   TIME STEP   19
 
 WELLS WITH REDUCED PUMPING FOR STRESS PERIOD    22 TIME STEP    19
   LAY   ROW   COL         APPL.Q          ACT.Q        GW-HEAD       CELL-BOT
     1     3    50  -0.999978E+00  -0.517253E+00   0.572893E+01   0.000000E+00
     1     5    55  -0.999978E+00  -0.436941E+00   0.508233E+01   0.000000E+00
 
 
 SOLVING FOR HEAD 
                                                   Max.-Head-Change                         Max.-Flux-Residual
  Residual-Control   Outer-Iter.   Inner-Iter.     Column Row Layer    Maximum-Head-Change  Column Row Layer    Maximum-Flux-Residual          L2-NORM 
          0                 1           2            81    4     1      -0.3884930101E-01      69    3    1        -0.1325902956E-02      0.2583360105E-01
          0                 2           2            71    7     1       0.3373359378E-02      69    3    1         0.1325666612E-03      0.2499864706E-02
          0                 3           2            70    7     1      -0.2752420484E-03      67    4    1         0.1744567665E-04      0.2506604216E-03
          0                 4           1            70    7     1       0.2049078008E-04      70    4    1        -0.1888900091E-05      0.2249518408E-04
          0                 5           1            69    7     1      -0.1366591771E-05      74    4    1         0.1572170927E-06      0.1711664457E-05
          0                 6           1            69    7     1       0.8004288222E-07      74    4    1        -0.1041823872E-07      0.1090599741E-06

    ------------------------------------------------
       NWT REQUIRED            6 OUTER ITERATIONS 
       AND A TOTAL OF          9 INNER ITERATIONS.
    ------------------------------------------------

 NO OUTPUT CONTROL FOR STRESS PERIOD   22   TIME STEP   20
 
 WELLS WITH REDUCED PUMPING FOR STRESS PERIOD    22 TIME STEP    20
   LAY   ROW   COL         APPL.Q          ACT.Q        GW-HEAD       CELL-BOT
     1     3    50  -0.100001E+01  -0.517205E+00   0.572844E+01   0.000000E+00
     1     5    55  -0.100001E+01  -0.436699E+00   0.508041E+01   0.000000E+00
 
 
 SOLVING FOR HEAD 
                                                   Max.-Head-Change                         Max.-Flux-Residual
  Residual-Control   Outer-Iter.   Inner-Iter.     Column Row Layer    Maximum-Head-Change  Column Row Layer    Maximum-Flux-Residual          L2-NORM 
          0                 1           2            78    4     1      -0.4513726470E-01      80    3    1        -0.1317626666E-02      0.2634400500E-01
          0                 2           2            79    7     1       0.3756824925E-02      80    3    1         0.1317916657E-03      0.2569953125E-02
          0                 3           2            79    7     1      -0.3012268068E-03      66    4    1         0.1743520112E-04      0.2584935257E-03
          0                 4           1            69    7     1       0.2218059946E-04      69    4    1        -0.1920766111E-05      0.2330158915E-04
          0                 5           1            69    7     1      -0.1470994756E-05      72    4    1         0.1605613207E-06      0.1779973517E-05
          0                 6           1            69    7     1       0.8571974889E-07      72    4    1        -0.1071762767E-07      0.1138741065E-06

    ------------------------------------------------
       NWT REQUIRED            6 OUTER ITERATIONS 
       AND A TOTAL OF          9 INNER ITERATIONS.
    ------------------------------------------------

 NO OUTPUT CONTROL FOR STRESS PERIOD   22   TIME STEP   21
 
 WELLS WITH REDUCED PUMPING FOR STRESS PERIOD    22 TIME STEP    21
   LAY   ROW   COL         APPL.Q          ACT.Q        GW-HEAD       CELL-BOT
     1     3    50  -0.100000E+01  -0.517056E+00   0.572737E+01   0.000000E+00
     1     5    55  -0.100000E+01  -0.436358E+00   0.507791E+01   0.000000E+00
 
 
 SOLVING FOR HEAD 
                                                   Max.-Head-Change                         Max.-Flux-Residual
  Residual-Control   Outer-Iter.   Inner-Iter.     Column Row Layer    Maximum-Head-Change  Column Row Layer    Maximum-Flux-Residual          L2-NORM 
          0                 1           2            76    4     1      -0.5128072189E-01      78    3    1        -0.1387079161E-02      0.2684310333E-01
          0                 2           2            77    7     1       0.4282515328E-02      78    3    1         0.1387216164E-03      0.2617299446E-02
          0                 3           2            77    7     1      -0.3422300266E-03      65    4    1         0.1734795908E-04      0.2633570373E-03
          0                 4           1            77    7     1       0.2478824872E-04      68    4    1        -0.1943766945E-05      0.2384412848E-04
          0                 5           1            77    7     1      -0.1599819512E-05      80    4    1         0.1684614954E-06      0.1828423972E-05
          0                 6           1            68    7     1       0.9184029604E-07      80    4    1        -0.1157560625E-07      0.1174509507E-06

    ------------------------------------------------
       NWT REQUIRED            6 OUTER ITERATIONS 
       AND A TOTAL OF          9 INNER ITERATIONS.
    ------------------------------------------------

 NO OUTPUT CONTROL FOR STRESS PERIOD   22   TIME STEP   22
 
 WELLS WITH REDUCED PUMPING FOR STRESS PERIOD    22 TIME STEP    22
   LAY   ROW   COL         APPL.Q          ACT.Q        GW-HEAD       CELL-BOT
     1     3    50  -0.999993E+00  -0.516814E+00   0.572559E+01   0.000000E+00
     1     5    55  -0.999993E+00  -0.435927E+00   0.507472E+01   0.000000E+00
 
 
 SOLVING FOR HEAD 
                                                   Max.-Head-Change                         Max.-Flux-Residual
  Residual-Control   Outer-Iter.   Inner-Iter.     Column Row Layer    Maximum-Head-Change  Column Row Layer    Maximum-Flux-Residual          L2-NORM 
          0                 1           2            73    4     1      -0.5679388745E-01      76    3    1        -0.1436178801E-02      0.2727326169E-01
          0                 2           2            75    7     1       0.4818211382E-02      76    3    1         0.1436078535E-03      0.2668774137E-02
          0                 3           2            75    7     1      -0.3842851562E-03      65    4    1         0.1744453924E-04      0.2689362753E-03
          0                 4           1            75    7     1       0.2774962747E-04      76    4    1        -0.2027077153E-05      0.2443426401E-04
          0                 5           1            75    7     1      -0.1782804067E-05      76    4    1         0.1777017040E-06      0.1877893178E-05
          0                 6           1            75    7     1       0.1009759482E-06      76    4    1        -0.1224756296E-07      0.1209715127E-06

    ------------------------------------------------
       NWT REQUIRED            6 OUTER ITERATIONS 
       AND A TOTAL OF          9 INNER ITERATIONS.
    ------------------------------------------------

 NO OUTPUT CONTROL FOR STRESS PERIOD   22   TIME STEP   23
 
 WELLS WITH REDUCED PUMPING FOR STRESS PERIOD    22 TIME STEP    23
   LAY   ROW   COL         APPL.Q          ACT.Q        GW-HEAD       CELL-BOT
     1     3    50  -0.999987E+00  -0.516448E+00   0.572288E+01   0.000000E+00
     1     5    55  -0.999987E+00  -0.435370E+00   0.507059E+01   0.000000E+00
 
 
 SOLVING FOR HEAD 
                                                   Max.-Head-Change                         Max.-Flux-Residual
  Residual-Control   Outer-Iter.   Inner-Iter.     Column Row Layer    Maximum-Head-Change  Column Row Layer    Maximum-Flux-Residual          L2-NORM 
          0                 1           3            70    4     1      -0.6280677812E-01      74    3    1        -0.1457923927E-02      0.2770977276E-01
          0                 2           2            74    7     1       0.5383093325E-02      74    5    1         0.1457729791E-03      0.2701804042E-02
          0                 3           2            74    7     1      -0.4285492478E-03      72    4    1         0.1750010409E-04      0.2719089780E-03
          0                 4           1            74    7     1       0.3083546705E-04      72    4    1        -0.2103813404E-05      0.2479026949E-04
          0                 5           1            73    7     1      -0.1970068218E-05      72    4    1         0.1839294796E-06      0.1909618916E-05
          0                 6           1            73    7     1       0.1112128969E-06      72    4    1        -0.1266515426E-07      0.1234083291E-06

    ------------------------------------------------
       NWT REQUIRED            6 OUTER ITERATIONS 
       AND A TOTAL OF         10 INNER ITERATIONS.
    ------------------------------------------------

 NO OUTPUT CONTROL FOR STRESS PERIOD   22   TIME STEP   24
 
 WELLS WITH REDUCED PUMPING FOR STRESS PERIOD    22 TIME STEP    24
   LAY   ROW   COL         APPL.Q          ACT.Q        GW-HEAD       CELL-BOT
     1     3    50  -0.999995E+00  -0.515994E+00   0.571946E+01   0.000000E+00
     1     5    55  -0.999995E+00  -0.434723E+00   0.506574E+01   0.000000E+00
 
 
 SOLVING FOR HEAD 
                                                   Max.-Head-Change                         Max.-Flux-Residual
  Residual-Control   Outer-Iter.   Inner-Iter.     Column Row Layer    Maximum-Head-Change  Column Row Layer    Maximum-Flux-Residual          L2-NORM 
          0                 1           3            73    4     1      -0.6915146967E-01      70    3    1        -0.1466662383E-02      0.2811634193E-01
          0                 2           2            73    7     1       0.5979643210E-02      70    3    1         0.1466340786E-03      0.2746574105E-02
          0                 3           2            73    7     1      -0.4741785216E-03      70    4    1         0.1789341935E-04      0.2765915134E-03
          0                 4           1            72    7     1       0.3395364577E-04      71    4    1        -0.2148761530E-05      0.2528674844E-04
          0                 5           1            71    7     1      -0.2157649786E-05      76    4    1         0.1891043340E-06      0.1948808620E-05
          0                 6           1            69    7     1       0.1218377719E-06      76    4    1        -0.1314158382E-07      0.1261594145E-06

    ------------------------------------------------
       NWT REQUIRED            6 OUTER ITERATIONS 
       AND A TOTAL OF         10 INNER ITERATIONS.
    ------------------------------------------------

 NO OUTPUT CONTROL FOR STRESS PERIOD   22   TIME STEP   25
 
 WELLS WITH REDUCED PUMPING FOR STRESS PERIOD    22 TIME STEP    25
   LAY   ROW   COL         APPL.Q          ACT.Q        GW-HEAD       CELL-BOT
     1     3    50  -0.100001E+01  -0.515338E+00   0.571450E+01   0.000000E+00
     1     5    55  -0.100001E+01  -0.433861E+00   0.505926E+01   0.000000E+00
 
 
 SOLVING FOR HEAD 
                                                   Max.-Head-Change                         Max.-Flux-Residual
  Residual-Control   Outer-Iter.   Inner-Iter.     Column Row Layer    Maximum-Head-Change  Column Row Layer    Maximum-Flux-Residual          L2-NORM 
          0                 1           3            71    4     1      -0.7596244212E-01      73    3    1        -0.1480341015E-02      0.2843283493E-01
          0                 2           2            72    7     1       0.6596965253E-02      73    3    1         0.1479960551E-03      0.2779021411E-02
          0                 3           2            72    7     1      -0.5214343434E-03      74    4    1         0.1825786192E-04      0.2793936489E-03
          0                 4           1            71    7     1       0.3719056080E-04      74    4    1        -0.2201731160E-05      0.2558291218E-04
          0                 5           1            69    7     1      -0.2350718532E-05      74    4    1         0.1948219364E-06      0.1969385809E-05
          0                 6           1            67    1     1       0.1326453899E-06      74    4    1        -0.1358008817E-07      0.1276497160E-06

    ------------------------------------------------
       NWT REQUIRED            6 OUTER ITERATIONS 
       AND A TOTAL OF         10 INNER ITERATIONS.
    ------------------------------------------------

 NO OUTPUT CONTROL FOR STRESS PERIOD   22   TIME STEP   26
 
 WELLS WITH REDUCED PUMPING FOR STRESS PERIOD    22 TIME STEP    26
   LAY   ROW   COL         APPL.Q          ACT.Q        GW-HEAD       CELL-BOT
     1     3    50  -0.100001E+01  -0.514536E+00   0.570852E+01   0.000000E+00
     1     5    55  -0.100001E+01  -0.432871E+00   0.505189E+01   0.000000E+00
 
 
 SOLVING FOR HEAD 
                                                   Max.-Head-Change                         Max.-Flux-Residual
  Residual-Control   Outer-Iter.   Inner-Iter.     Column Row Layer    Maximum-Head-Change  Column Row Layer    Maximum-Flux-Residual          L2-NORM 
          0                 1           3            72    1     1      -0.8383508389E-01      71    3    1        -0.1482504603E-02      0.2877405905E-01
          0                 2           2            72    7     1       0.7276905015E-02      71    3    1         0.1482159459E-03      0.2803475696E-02
          0                 3           2            71    7     1      -0.5734093944E-03      68    4    1         0.1812762739E-04      0.2808995068E-03
          0                 4           1            71    7     1       0.4068390375E-04      68    4    1        -0.2192283050E-05      0.2574880940E-04
          0                 5           1            69    7     1      -0.2547096391E-05      72    4    1         0.1946840005E-06      0.1977003855E-05
          0                 6           1            67    7     1       0.1429075721E-06      72    4    1        -0.1367954638E-07      0.1282333432E-06

    ------------------------------------------------
       NWT REQUIRED            6 OUTER ITERATIONS 
       AND A TOTAL OF         10 INNER ITERATIONS.
    ------------------------------------------------

 NO OUTPUT CONTROL FOR STRESS PERIOD   22   TIME STEP   27
 
 WELLS WITH REDUCED PUMPING FOR STRESS PERIOD    22 TIME STEP    27
   LAY   ROW   COL         APPL.Q          ACT.Q        GW-HEAD       CELL-BOT
     1     3    50  -0.100000E+01  -0.513695E+00   0.570226E+01   0.000000E+00
     1     5    55  -0.100000E+01  -0.431838E+00   0.504420E+01   0.000000E+00
 
 
 SOLVING FOR HEAD 
                                                   Max.-Head-Change                         Max.-Flux-Residual
  Residual-Control   Outer-Iter.   Inner-Iter.     Column Row Layer    Maximum-Head-Change  Column Row Layer    Maximum-Flux-Residual          L2-NORM 
          0                 1           3            71    4     1      -0.9274650396E-01      73    3    1        -0.1483979454E-02      0.2905913105E-01
          0                 2           2            71    7     1       0.8030155588E-02      73    3    1         0.1483673350E-03      0.2836011576E-02
          0                 3           2            71    7     1      -0.6302475806E-03      67    4    1         0.1861880777E-04      0.2837764288E-03
          0                 4           1            70    7     1       0.4445311496E-04      67    4    1        -0.2234978322E-05      0.2603083339E-04
          0                 5           1            69    7     1      -0.2754443432E-05      74    4    1         0.2003317530E-06      0.1989156795E-05
          0                 6           1            65    1     1       0.1534350381E-06      74    4    1        -0.1410544037E-07      0.1289424288E-06

    ------------------------------------------------
       NWT REQUIRED            6 OUTER ITERATIONS 
       AND A TOTAL OF         10 INNER ITERATIONS.
    ------------------------------------------------

 NO OUTPUT CONTROL FOR STRESS PERIOD   22   TIME STEP   28
 
 WELLS WITH REDUCED PUMPING FOR STRESS PERIOD    22 TIME STEP    28
   LAY   ROW   COL         APPL.Q          ACT.Q        GW-HEAD       CELL-BOT
     1     3    50  -0.100000E+01  -0.512705E+00   0.569486E+01   0.000000E+00
     1     5    55  -0.100000E+01  -0.430662E+00   0.503542E+01   0.000000E+00
 
 
 SOLVING FOR HEAD 
                                                   Max.-Head-Change                         Max.-Flux-Residual
  Residual-Control   Outer-Iter.   Inner-Iter.     Column Row Layer    Maximum-Head-Change  Column Row Layer    Maximum-Flux-Residual          L2-NORM 
          0                 1           3            71    1     1      -0.1018731581E+00      71    3    1        -0.1494682842E-02      0.2926412963E-01
          0                 2           2            70    7     1       0.8805955195E-02      71    3    1         0.1494168935E-03      0.2860624801E-02
          0                 3           2            70    7     1      -0.6890937914E-03      74    4    1         0.1844544727E-04      0.2860257933E-03
          0                 4           1            69    7     1       0.4840141845E-04      74    4    1        -0.2267539037E-05      0.2626287586E-04
          0                 5           1            67    7     1      -0.2969745107E-05      74    4    1         0.2041331832E-06      0.1994190062E-05
          0                 6           1            67    7     1       0.1644539182E-06      74    4    1        -0.1439978448E-07      0.1290699294E-06

    ------------------------------------------------
       NWT REQUIRED            6 OUTER ITERATIONS 
       AND A TOTAL OF         10 INNER ITERATIONS.
    ------------------------------------------------

 NO OUTPUT CONTROL FOR STRESS PERIOD   22   TIME STEP   29
 
 WELLS WITH REDUCED PUMPING FOR STRESS PERIOD    22 TIME STEP    29
   LAY   ROW   COL         APPL.Q          ACT.Q        GW-HEAD       CELL-BOT
     1     3    50  -0.999993E+00  -0.511357E+00   0.568483E+01   0.000000E+00
     1     5    55  -0.999993E+00  -0.429133E+00   0.502403E+01   0.000000E+00
 
 
 SOLVING FOR HEAD 
                                                   Max.-Head-Change                         Max.-Flux-Residual
  Residual-Control   Outer-Iter.   Inner-Iter.     Column Row Layer    Maximum-Head-Change  Column Row Layer    Maximum-Flux-Residual          L2-NORM 
          0                 1           3            74    7     1      -0.1119747784E+00      70    3    1        -0.1488178120E-02      0.2937907550E-01
          0                 2           3            74    7     1       0.9682268723E-02      70    3    1         0.1487620025E-03      0.2876360879E-02
          0                 3           2            74    7     1      -0.7551930480E-03      72    4    1         0.1862508494E-04      0.2874961496E-03
          0                 4           1            74    7     1       0.5249321406E-04      72    4    1        -0.2295636468E-05      0.2641882543E-04
          0                 5           1            67    7     1      -0.3192849401E-05      72    4    1         0.2072145460E-06      0.1989895992E-05
          0                 6           1            65    7     1       0.1767747306E-06      72    4    1        -0.1466060695E-07      0.1285116564E-06

    ------------------------------------------------
       NWT REQUIRED            6 OUTER ITERATIONS 
       AND A TOTAL OF         11 INNER ITERATIONS.
    ------------------------------------------------

 NO OUTPUT CONTROL FOR STRESS PERIOD   22   TIME STEP   30
 
 WELLS WITH REDUCED PUMPING FOR STRESS PERIOD    22 TIME STEP    30
   LAY   ROW   COL         APPL.Q          ACT.Q        GW-HEAD       CELL-BOT
     1     3    50  -0.999995E+00  -0.509641E+00   0.567201E+01   0.000000E+00
     1     5    55  -0.999995E+00  -0.427242E+00   0.500990E+01   0.000000E+00
 



 STREAM LISTING     PERIOD     22   STEP       30

 LAYER ROW COL. STREAM  RCH.   FLOW INTO    STREAM     FLOW OUT OF   OVRLND.    DIRECT     STREAM      STREAM      STREAM     STREAM  STREAMBED   FLOW TO   CHNG. UNSAT. 
                SEG.NO.  NO.   STRM. RCH.    LOSS       STRM. RCH.   RUNOFF     PRECIP       ET         HEAD        DEPTH      WIDTH  CONDCTNC.   WAT. TAB.

   1    4    1     1     1    5.8160E+00  1.9264E-03   5.8141E+00  0.000E+00  0.000E+00  0.000E+00  1.41674E+02  1.824E+00  3.995E+00  8.289E-04  2.203E-03 -2.770E-04
   1    4    2     1     2    5.8141E+00  1.9259E-03   5.8121E+00  0.000E+00  0.000E+00  0.000E+00  1.41374E+02  1.824E+00  3.995E+00  8.288E-04  2.203E-03 -2.767E-04
   1    4    3     1     3    5.8121E+00  1.9254E-03   5.8102E+00  0.000E+00  0.000E+00  0.000E+00  1.41074E+02  1.823E+00  3.994E+00  8.287E-04  2.202E-03 -2.763E-04
   1    4    4     1     4    5.8102E+00  1.9250E-03   5.8083E+00  0.000E+00  0.000E+00  0.000E+00  1.40773E+02  1.823E+00  3.994E+00  8.286E-04  2.201E-03 -2.759E-04
   1    4    5     1     5    5.8083E+00  1.9245E-03   5.8064E+00  0.000E+00  0.000E+00  0.000E+00  1.40473E+02  1.823E+00  3.993E+00  8.285E-04  2.200E-03 -2.755E-04
   1    4    6     1     6    5.8064E+00  1.9240E-03   5.8044E+00  0.000E+00  0.000E+00  0.000E+00  1.40173E+02  1.823E+00  3.993E+00  8.284E-04  2.199E-03 -2.750E-04
   1    4    7     1     7    5.8044E+00  1.9235E-03   5.8025E+00  0.000E+00  0.000E+00  0.000E+00  1.39872E+02  1.822E+00  3.993E+00  8.283E-04  2.198E-03 -2.745E-04
   1    4    8     1     8    5.8025E+00  1.9230E-03   5.8006E+00  0.000E+00  0.000E+00  0.000E+00  1.39572E+02  1.822E+00  3.992E+00  8.282E-04  2.197E-03 -2.739E-04
   1    4    9     1     9    5.8006E+00  1.9225E-03   5.7987E+00  0.000E+00  0.000E+00  0.000E+00  1.39272E+02  1.822E+00  3.992E+00  8.281E-04  2.196E-03 -2.733E-04
   1    4   10     1    10    5.7987E+00  1.9220E-03   5.7968E+00  0.000E+00  0.000E+00  0.000E+00  1.38971E+02  1.821E+00  3.992E+00  8.280E-04  2.195E-03 -2.727E-04
   1    4   11     1    11    5.7968E+00  1.9215E-03   5.7948E+00  0.000E+00  0.000E+00  0.000E+00  1.38671E+02  1.821E+00  3.991E+00  8.279E-04  2.193E-03 -2.720E-04
   1    4   12     1    12    5.7948E+00  1.9210E-03   5.7929E+00  0.000E+00  0.000E+00  0.000E+00  1.38371E+02  1.821E+00  3.991E+00  8.278E-04  2.192E-03 -2.713E-04
   1    4   13     1    13    5.7929E+00  1.9205E-03   5.7910E+00  0.000E+00  0.000E+00  0.000E+00  1.38070E+02  1.820E+00  3.990E+00  8.277E-04  2.191E-03 -2.705E-04
   1    4   14     1    14    5.7910E+00  1.9200E-03   5.7891E+00  0.000E+00  0.000E+00  0.000E+00  1.37770E+02  1.820E+00  3.990E+00  8.276E-04  2.190E-03 -2.696E-04
   1    4   15     1    15    5.7891E+00  1.9195E-03   5.7872E+00  0.000E+00  0.000E+00  0.000E+00  1.37470E+02  1.820E+00  3.990E+00  8.275E-04  2.188E-03 -2.688E-04
   1    4   16     1    16    5.7872E+00  1.9190E-03   5.7852E+00  0.000E+00  0.000E+00  0.000E+00  1.37169E+02  1.819E+00  3.989E+00  8.274E-04  2.187E-03 -2.679E-04
   1    4   17     1    17    5.7852E+00  1.9185E-03   5.7833E+00  0.000E+00  0.000E+00  0.000E+00  1.36869E+02  1.819E+00  3.989E+00  8.273E-04  2.191E-03 -2.725E-04
   1    4   18     1    18    5.7833E+00  1.9180E-03   5.7814E+00  0.000E+00  0.000E+00  0.000E+00  1.36569E+02  1.819E+00  3.989E+00  8.272E-04  2.212E-03 -2.941E-04
   1    4   19     1    19    5.7814E+00  1.9175E-03   5.7795E+00  0.000E+00  0.000E+00  0.000E+00  1.36269E+02  1.819E+00  3.988E+00  8.271E-04  2.235E-03 -3.179E-04
   1    4   20     1    20    5.7795E+00  1.9171E-03   5.7776E+00  0.000E+00  0.000E+00  0.000E+00  1.35968E+02  1.818E+00  3.988E+00  8.270E-04  2.261E-03 -3.440E-04
   1    4   21     1    21    5.7776E+00  1.9166E-03   5.7756E+00  0.000E+00  0.000E+00  0.000E+00  1.35668E+02  1.818E+00  3.987E+00  8.269E-04  2.261E-03 -3.440E-04
   1    4   22     1    22    5.7756E+00  1.9161E-03   5.7737E+00  0.000E+00  0.000E+00  0.000E+00  1.35368E+02  1.818E+00  3.987E+00  8.268E-04  2.259E-03 -3.428E-04
   1    4   23     1    23    5.7737E+00  1.9156E-03   5.7718E+00  0.000E+00  0.000E+00  0.000E+00  1.35067E+02  1.817E+00  3.987E+00  8.267E-04  2.257E-03 -3.416E-04
   1    4   24     1    24    5.7718E+00  1.9151E-03   5.7699E+00  0.000E+00  0.000E+00  0.000E+00  1.34767E+02  1.817E+00  3.986E+00  8.266E-04  2.292E-03 -3.771E-04
   1    4   25     1    25    5.7699E+00  1.9146E-03   5.7680E+00  0.000E+00  0.000E+00  0.000E+00  1.34467E+02  1.817E+00  3.986E+00  8.264E-04  2.366E-03 -4.513E-04
   1    4   26     1    26    5.7680E+00  1.9141E-03   5.7661E+00  0.000E+00  0.000E+00  0.000E+00  1.34166E+02  1.816E+00  3.986E+00  8.263E-04  2.435E-03 -5.211E-04
   1    4   27     1    27    5.7661E+00  1.9136E-03   5.7642E+00  0.000E+00  0.000E+00  0.000E+00  1.33866E+02  1.816E+00  3.985E+00  8.262E-04  2.434E-03 -5.204E-04
   1    4   28     1    28    5.7642E+00  1.9131E-03   5.7622E+00  0.000E+00  0.000E+00  0.000E+00  1.33566E+02  1.816E+00  3.985E+00  8.261E-04  2.433E-03 -5.195E-04
   1    4   29     1    29    5.7622E+00  1.9126E-03   5.7603E+00  0.000E+00  0.000E+00  0.000E+00  1.33265E+02  1.815E+00  3.985E+00  8.260E-04  2.431E-03 -5.188E-04
   1    4   30     1    30    5.7603E+00  1.9121E-03   5.7584E+00  0.000E+00  0.000E+00  0.000E+00  1.32965E+02  1.815E+00  3.984E+00  8.259E-04  2.464E-03 -5.523E-04
   1    4   31     1    31    5.7584E+00  1.9116E-03   5.7565E+00  0.000E+00  0.000E+00  0.000E+00  1.32665E+02  1.815E+00  3.984E+00  8.258E-04  2.500E-03 -5.882E-04
   1    4   32     1    32    5.7565E+00  1.9111E-03   5.7546E+00  0.000E+00  0.000E+00  0.000E+00  1.32364E+02  1.814E+00  3.983E+00  8.257E-04  2.538E-03 -6.265E-04
   1    4   33     1    33    5.7546E+00  1.9107E-03   5.7527E+00  0.000E+00  0.000E+00  0.000E+00  1.32064E+02  1.814E+00  3.983E+00  8.256E-04  2.578E-03 -6.670E-04
   1    4   34     1    34    5.7527E+00  1.9102E-03   5.7508E+00  0.000E+00  0.000E+00  0.000E+00  1.31764E+02  1.814E+00  3.983E+00  8.255E-04  2.636E-03 -7.259E-04
   1    4   35     1    35    5.7508E+00  1.9097E-03   5.7489E+00  0.000E+00  0.000E+00  0.000E+00  1.31464E+02  1.814E+00  3.982E+00  8.254E-04  2.657E-03 -7.473E-04
   1    4   36     1    36    5.7489E+00  1.9092E-03   5.7470E+00  0.000E+00  0.000E+00  0.000E+00  1.31163E+02  1.813E+00  3.982E+00  8.253E-04  2.656E-03 -7.468E-04
   1    4   37     1    37    5.7470E+00  1.9087E-03   5.7451E+00  0.000E+00  0.000E+00  0.000E+00  1.30863E+02  1.813E+00  3.982E+00  8.252E-04  2.655E-03 -7.465E-04
   1    4   38     1    38    5.7451E+00  1.9082E-03   5.7431E+00  0.000E+00  0.000E+00  0.000E+00  1.30563E+02  1.813E+00  3.981E+00  8.251E-04  2.654E-03 -7.461E-04
   1    4   39     1    39    5.7431E+00  1.9077E-03   5.7412E+00  0.000E+00  0.000E+00  0.000E+00  1.30262E+02  1.812E+00  3.981E+00  8.250E-04  2.654E-03 -7.458E-04
   1    4   40     1    40    5.7412E+00  1.9072E-03   5.7393E+00  0.000E+00  0.000E+00  0.000E+00  1.29962E+02  1.812E+00  3.980E+00  8.249E-04  2.653E-03 -7.458E-04
   1    4   41     1    41    5.7393E+00  1.9067E-03   5.7374E+00  0.000E+00  0.000E+00  0.000E+00  1.29662E+02  1.812E+00  3.980E+00  8.248E-04  2.769E-03 -8.622E-04
   1    4   42     1    42    5.7374E+00  1.9062E-03   5.7355E+00  0.000E+00  0.000E+00  0.000E+00  1.29361E+02  1.811E+00  3.980E+00  8.247E-04  2.863E-03 -9.573E-04
   1    4   43     1    43    5.7355E+00  1.9057E-03   5.7336E+00  0.000E+00  0.000E+00  0.000E+00  1.29061E+02  1.811E+00  3.979E+00  8.246E-04  2.917E-03 -1.011E-03
   1    4   44     1    44    5.7336E+00  1.9053E-03   5.7317E+00  0.000E+00  0.000E+00  0.000E+00  1.28761E+02  1.811E+00  3.979E+00  8.245E-04  2.919E-03 -1.014E-03
   1    4   45     1    45    5.7317E+00  1.9048E-03   5.7298E+00  0.000E+00  0.000E+00  0.000E+00  1.28460E+02  1.810E+00  3.979E+00  8.244E-04  2.975E-03 -1.070E-03
   1    4   46     1    46    5.7298E+00  1.9043E-03   5.7279E+00  0.000E+00  0.000E+00  0.000E+00  1.28160E+02  1.810E+00  3.978E+00  8.243E-04  3.089E-03 -1.185E-03
   1    4   47     1    47    5.7279E+00  1.9038E-03   5.7260E+00  0.000E+00  0.000E+00  0.000E+00  1.27860E+02  1.810E+00  3.978E+00  8.242E-04  3.450E-03 -1.546E-03
   1    4   48     1    48    5.7260E+00  1.9033E-03   5.7241E+00  0.000E+00  0.000E+00  0.000E+00  1.27560E+02  1.809E+00  3.977E+00  8.241E-04  3.588E-03 -1.684E-03
   1    4   49     1    49    5.7241E+00  1.9028E-03   5.7222E+00  0.000E+00  0.000E+00  0.000E+00  1.27259E+02  1.809E+00  3.977E+00  8.240E-04  3.600E-03 -1.695E-03
   1    4   50     1    50    5.7222E+00  1.9023E-03   5.7203E+00  0.000E+00  0.000E+00  0.000E+00  1.26959E+02  1.809E+00  3.977E+00  8.239E-04  3.935E-03 -2.031E-03
   1    4   51     1    51    5.7203E+00  1.9018E-03   5.7184E+00  0.000E+00  0.000E+00  0.000E+00  1.26659E+02  1.809E+00  3.976E+00  8.238E-04  3.846E-03 -1.942E-03
   1    4   52     1    52    5.7184E+00  1.9013E-03   5.7165E+00  0.000E+00  0.000E+00  0.000E+00  1.26358E+02  1.808E+00  3.976E+00  8.237E-04  3.820E-03 -1.917E-03
   1    4   53     1    53    5.7165E+00  1.9008E-03   5.7146E+00  0.000E+00  0.000E+00  0.000E+00  1.26058E+02  1.808E+00  3.976E+00  8.236E-04  3.815E-03 -1.912E-03
   1    4   54     1    54    5.7146E+00  1.9004E-03   5.7127E+00  0.000E+00  0.000E+00  0.000E+00  1.25758E+02  1.808E+00  3.975E+00  8.235E-04  3.832E-03 -1.930E-03
   1    4   55     1    55    5.7127E+00  1.8999E-03   5.7108E+00  0.000E+00  0.000E+00  0.000E+00  1.25457E+02  1.807E+00  3.975E+00  8.234E-04  3.909E-03 -2.007E-03
   1    4   56     1    56    5.7108E+00  1.8994E-03   5.7089E+00  0.000E+00  0.000E+00  0.000E+00  1.25157E+02  1.807E+00  3.974E+00  8.233E-04  3.580E-03 -1.679E-03
   1    4   57     1    57    5.7089E+00  1.8989E-03   5.7070E+00  0.000E+00  0.000E+00  0.000E+00  1.24857E+02  1.807E+00  3.974E+00  8.232E-04  3.552E-03 -1.651E-03
   1    4   58     1    58    5.7070E+00  1.8984E-03   5.7051E+00  0.000E+00  0.000E+00  0.000E+00  1.24556E+02  1.806E+00  3.974E+00  8.231E-04  3.460E-03 -1.562E-03
   1    4   59     1    59    5.7051E+00  1.8979E-03   5.7032E+00  0.000E+00  0.000E+00  0.000E+00  1.24256E+02  1.806E+00  3.973E+00  8.230E-04  3.109E-03 -1.212E-03
   1    4   60     1    60    5.7032E+00  1.8974E-03   5.7013E+00  0.000E+00  0.000E+00  0.000E+00  1.23956E+02  1.806E+00  3.973E+00  8.229E-04  2.955E-03 -1.058E-03
   1    4   61     1    61    5.7013E+00  1.8969E-03   5.6994E+00  0.000E+00  0.000E+00  0.000E+00  1.23655E+02  1.805E+00  3.973E+00  8.228E-04  2.901E-03 -1.005E-03
   1    4   62     1    62    5.6994E+00  1.8964E-03   5.6975E+00  0.000E+00  0.000E+00  0.000E+00  1.23355E+02  1.805E+00  3.972E+00  8.227E-04  2.861E-03 -9.643E-04
   1    4   63     1    63    5.6975E+00  1.8960E-03   5.6956E+00  0.000E+00  0.000E+00  0.000E+00  1.23055E+02  1.805E+00  3.972E+00  8.226E-04  2.826E-03 -9.297E-04
   1    4   64     1    64    5.6956E+00  1.8955E-03   5.6937E+00  0.000E+00  0.000E+00  0.000E+00  1.22755E+02  1.805E+00  3.971E+00  8.225E-04  2.754E-03 -8.588E-04
   1    4   65     1    65    5.6937E+00  1.8950E-03   5.6918E+00  0.000E+00  0.000E+00  0.000E+00  1.22454E+02  1.804E+00  3.971E+00  8.224E-04  2.677E-03 -7.818E-04
   1    4   66     1    66    5.6918E+00  1.8945E-03   5.6899E+00  0.000E+00  0.000E+00  0.000E+00  1.22154E+02  1.804E+00  3.971E+00  8.223E-04  2.602E-03 -7.071E-04
   1    4   67     1    67    5.6899E+00  1.8940E-03   5.6880E+00  0.000E+00  0.000E+00  0.000E+00  1.21854E+02  1.804E+00  3.970E+00  8.222E-04  2.590E-03 -6.956E-04
   1    4   68     1    68    5.6880E+00  1.8935E-03   5.6861E+00  0.000E+00  0.000E+00  0.000E+00  1.21553E+02  1.803E+00  3.970E+00  8.221E-04  2.588E-03 -6.944E-04
   1    4   69     1    69    5.6861E+00  1.8930E-03   5.6842E+00  0.000E+00  0.000E+00  0.000E+00  1.21253E+02  1.803E+00  3.970E+00  8.220E-04  2.586E-03 -6.931E-04
   1    4   70     1    70    5.6842E+00  1.8925E-03   5.6823E+00  0.000E+00  0.000E+00  0.000E+00  1.20953E+02  1.803E+00  3.969E+00  8.219E-04  2.585E-03 -6.920E-04
   1    4   71     1    71    5.6823E+00  1.8921E-03   5.6804E+00  0.000E+00  0.000E+00  0.000E+00  1.20652E+02  1.802E+00  3.969E+00  8.218E-04  2.583E-03 -6.910E-04
   1    4   72     1    72    5.6804E+00  1.8916E-03   5.6786E+00  0.000E+00  0.000E+00  0.000E+00  1.20352E+02  1.802E+00  3.969E+00  8.217E-04  2.582E-03 -6.901E-04
   1    4   73     1    73    5.6786E+00  1.8911E-03   5.6767E+00  0.000E+00  0.000E+00  0.000E+00  1.20052E+02  1.802E+00  3.968E+00  8.216E-04  2.527E-03 -6.354E-04
   1    4   74     1    74    5.6767E+00  1.8906E-03   5.6748E+00  0.000E+00  0.000E+00  0.000E+00  1.19751E+02  1.801E+00  3.968E+00  8.215E-04  2.437E-03 -5.463E-04
   1    4   75     1    75    5.6748E+00  1.8901E-03   5.6729E+00  0.000E+00  0.000E+00  0.000E+00  1.19451E+02  1.801E+00  3.967E+00  8.214E-04  2.387E-03 -4.973E-04
   1    4   76     1    76    5.6729E+00  1.8896E-03   5.6710E+00  0.000E+00  0.000E+00  0.000E+00  1.19151E+02  1.801E+00  3.967E+00  8.213E-04  2.360E-03 -4.703E-04
   1    4   77     1    77    5.6710E+00  1.8891E-03   5.6691E+00  0.000E+00  0.000E+00  0.000E+00  1.18851E+02  1.801E+00  3.967E+00  8.212E-04  2.360E-03 -4.706E-04
   1    4   78     1    78    5.6691E+00  1.8886E-03   5.6672E+00  0.000E+00  0.000E+00  0.000E+00  1.18550E+02  1.800E+00  3.966E+00  8.211E-04  2.348E-03 -4.597E-04
   1    4   79     1    79    5.6672E+00  1.8882E-03   5.6653E+00  0.000E+00  0.000E+00  0.000E+00  1.18250E+02  1.800E+00  3.966E+00  8.210E-04  2.256E-03 -3.675E-04
   1    4   80     1    80    5.6653E+00  1.8877E-03   5.6634E+00  0.000E+00  0.000E+00  0.000E+00  1.17950E+02  1.800E+00  3.966E+00  8.209E-04  2.180E-03 -2.926E-04
   1    4   81     1    81    5.6634E+00  1.8872E-03   5.6616E+00  0.000E+00  0.000E+00  0.000E+00  1.17649E+02  1.799E+00  3.965E+00  8.208E-04  2.181E-03 -2.939E-04
   1    4   82     1    82    5.6616E+00  1.8867E-03   5.6597E+00  0.000E+00  0.000E+00  0.000E+00  1.17349E+02  1.799E+00  3.965E+00  8.207E-04  2.182E-03 -2.956E-04
   1    4   83     1    83    5.6597E+00  1.8862E-03   5.6578E+00  0.000E+00  0.000E+00  0.000E+00  1.17049E+02  1.799E+00  3.964E+00  8.206E-04  2.183E-03 -2.972E-04
   1    4   84     1    84    5.6578E+00  1.8857E-03   5.6559E+00  0.000E+00  0.000E+00  0.000E+00  1.16748E+02  1.798E+00  3.964E+00  8.205E-04  2.185E-03 -2.990E-04
   1    4   85     1    85    5.6559E+00  1.8852E-03   5.6540E+00  0.000E+00  0.000E+00  0.000E+00  1.16448E+02  1.798E+00  3.964E+00  8.204E-04  2.186E-03 -3.011E-04
   1    4   86     1    86    5.6540E+00  1.8848E-03   5.6521E+00  0.000E+00  0.000E+00  0.000E+00  1.16148E+02  1.798E+00  3.963E+00  8.203E-04  2.188E-03 -3.036E-04
   1    4   87     1    87    5.6521E+00  1.8843E-03   5.6502E+00  0.000E+00  0.000E+00  0.000E+00  1.15847E+02  1.797E+00  3.963E+00  8.202E-04  2.191E-03 -3.065E-04
   1    4   88     1    88    5.6502E+00  1.8838E-03   5.6484E+00  0.000E+00  0.000E+00  0.000E+00  1.15547E+02  1.797E+00  3.963E+00  8.201E-04  2.194E-03 -3.098E-04
   1    4   89     1    89    5.6484E+00  1.8833E-03   5.6465E+00  0.000E+00  0.000E+00  0.000E+00  1.15247E+02  1.797E+00  3.962E+00  8.200E-04  2.197E-03 -3.137E-04
   1    4   90     1    90    5.6465E+00  1.8828E-03   5.6446E+00  0.000E+00  0.000E+00  0.000E+00  1.14946E+02  1.796E+00  3.962E+00  8.199E-04  2.201E-03 -3.181E-04
   1    4   91     1    91    5.6446E+00  1.8823E-03   5.6427E+00  0.000E+00  0.000E+00  0.000E+00  1.14646E+02  1.796E+00  3.961E+00  8.198E-04  2.206E-03 -3.233E-04
   1    4   92     1    92    5.6427E+00  1.8818E-03   5.6408E+00  0.000E+00  0.000E+00  0.000E+00  1.14346E+02  1.796E+00  3.961E+00  8.197E-04  2.211E-03 -3.293E-04
   1    4   93     1    93    5.6408E+00  1.8814E-03   5.6389E+00  0.000E+00  0.000E+00  0.000E+00  1.14046E+02  1.796E+00  3.961E+00  8.196E-04  2.217E-03 -3.361E-04
   1    4   94     1    94    5.6389E+00  1.8809E-03   5.6371E+00  0.000E+00  0.000E+00  0.000E+00  1.13745E+02  1.795E+00  3.960E+00  8.195E-04  2.225E-03 -3.438E-04
   1    4   95     1    95    5.6371E+00  1.8804E-03   5.6352E+00  0.000E+00  0.000E+00  0.000E+00  1.13445E+02  1.795E+00  3.960E+00  8.194E-04  2.233E-03 -3.525E-04
   1    4   96     1    96    5.6352E+00  1.8799E-03   5.6333E+00  0.000E+00  0.000E+00  0.000E+00  1.13145E+02  1.795E+00  3.960E+00  8.193E-04  2.242E-03 -3.622E-04
   1    4   97     1    97    5.6333E+00  1.8794E-03   5.6314E+00  0.000E+00  0.000E+00  0.000E+00  1.12844E+02  1.794E+00  3.959E+00  8.192E-04  2.252E-03 -3.728E-04
   1    4   98     1    98    5.6314E+00  1.8789E-03   5.6295E+00  0.000E+00  0.000E+00  0.000E+00  1.12544E+02  1.794E+00  3.959E+00  8.191E-04  2.263E-03 -3.844E-04
   1    4   99     1    99    5.6295E+00  1.8784E-03   5.6277E+00  0.000E+00  0.000E+00  0.000E+00  1.12244E+02  1.794E+00  3.959E+00  8.190E-04  2.275E-03 -3.967E-04
   1    4  100     1   100    5.6277E+00  1.8780E-03   5.6258E+00  0.000E+00  0.000E+00  0.000E+00  1.11943E+02  1.793E+00  3.958E+00  8.189E-04  2.287E-03 -4.095E-04



1
  VOLUMETRIC BUDGET FOR UNSATURATED ZONE BENEATH STREAMS AT END OF TIME STEP    30 STRESS PERIOD  22
  ------------------------------------------------------------------------------------------------

    CUMULATIVE VOLUMES             L**3    RATES FOR THIS TIME STEP         L**3/T
    ------------------                     ------------------------


          STREAM LOSS =     26662802.0000            STREAM LOSS =            0.1902
    CHANGE IN STORAGE =      1627514.6250      CHANGE IN STORAGE =       -6.6889E-02
       RECHARGE TO GW =     25042074.0000         RECHARGE TO GW =            0.2571

             TOTAL IN =     26662802.0000               TOTAL IN =            0.2571

            TOTAL OUT =     26669588.0000              TOTAL OUT =            0.2571

             IN - OUT =        -6786.0000               IN - OUT =       -1.9431E-05

  PERCENT DISCREPANCY =           -0.01      PERCENT DISCREPANCY =            -0.00



1
  VOLUMETRIC BUDGET FOR ENTIRE MODEL AT END OF TIME STEP   30, STRESS PERIOD  22
  ------------------------------------------------------------------------------

     CUMULATIVE VOLUMES      L**3       RATES FOR THIS TIME STEP      L**3/T
     ------------------                 ------------------------

           IN:                                      IN:
           ---                                      ---
             STORAGE     =    84219952.0000               STORAGE     =           0.7422
       CONSTANT HEAD     =           0.0000         CONSTANT HEAD     =           0.0000
               WELLS     =           0.0000                 WELLS     =           0.0000
     HEAD DEP BOUNDS     =           0.0000       HEAD DEP BOUNDS     =           0.0000
      STREAM LEAKAGE     =    25042022.0000        STREAM LEAKAGE     =           0.2571

                TOTAL IN =   109261976.0000                  TOTAL IN =           0.9994

          OUT:                                     OUT:
          ----                                     ----
             STORAGE     =     2999076.7500               STORAGE     =           0.0000
       CONSTANT HEAD     =           0.0000         CONSTANT HEAD     =           0.0000
               WELLS     =    90148848.0000                 WELLS     =           0.9369
     HEAD DEP BOUNDS     =    16114180.0000       HEAD DEP BOUNDS     =       6.2484E-02
      STREAM LEAKAGE     =           0.0000        STREAM LEAKAGE     =           0.0000

               TOTAL OUT =   109262112.0000                 TOTAL OUT =           0.9994

                IN - OUT =        -136.0000                  IN - OUT =           0.0000

     PERCENT DISCREPANCY =          -0.00         PERCENT DISCREPANCY =           0.00






         TIME SUMMARY AT END OF TIME STEP   30 IN STRESS PERIOD   22
                    SECONDS     MINUTES      HOURS       DAYS        YEARS
                    -----------------------------------------------------------
   TIME STEP LENGTH 2.49961E+05  4166.0      69.434      2.8931     7.92080E-03
 STRESS PERIOD TIME 2.59200E+06  43200.      720.00      30.000     8.21355E-02
         TOTAL TIME 5.70240E+07 9.50399E+05  15840.      660.00      1.8070    
1
1
                            STRESS PERIOD NO.   23, LENGTH =   2592000.    
                            -----------------------------------------------

                              NUMBER OF TIME STEPS =    30

                               MULTIPLIER FOR DELT =     1.100

                            INITIAL TIME STEP SIZE =   15757.40    

 REUSING NON-PARAMETER WELLS FROM LAST STRESS PERIOD

      1 WELL 

 REUSING NON-PARAMETER GHB CELLS FROM LAST STRESS PERIOD

      7 GHB CELLS



 CLASSIFICATION & COUNT OF STREAM SEGMENTS BASED ON SOURCE OF INFLOW:

                HEADWATER     DIVERSION     RECEIVES TRIBUTARY FLOW
                ---------     ---------     -----------------------
                     1              0               0



                    INPUT DATA FOR EACH STREAM SEGMENT
 ---------------------------------------------------------------------------------------------

 SEGMENT    SEG.     INFLOW   OVERLAND   STREAM    STREAM   ICALC  OUTFLOW  DIVERSION PRIORITY
    NO.    LENGTH     RATE     RUNOFF      ET       PPT.    METH.  TO SEG.  FROM SEG.    NO.

      1  2.000E+04 4.296E+00 0.000E+00 0.000E+00 0.000E+00    2        0        0        0


         STREAMBED PROPERTIES AND STREAM DIMENSIONS

 SEGMENT     BED HYD. COND.      BED THICKNESS     ELEV.-TOP OF BED     WIDTH OF STREAM     DEPTH OF STREAM    STREAM ROUGHNESS
    No.     UPPER     LOWER     UPPER     LOWER     UPPER     LOWER     UPPER     LOWER     UPPER     LOWER   CHANNEL      BANK

     1  3.500E-07 3.500E-07                                                                                 3.000E-02 4.000E-02

  EIGHT POINT CROSS-SECTION DATA FOR SEGMENTS WITH ICALC = 2
    X VALUES X VALUES START FROM LEFT SIDE LOOKING DOWNSTREAM

     SEGMENT NO.        X1        X2        X3        X4        X5        X6        X7        X8
            1      0.000E+00 2.000E+00 4.000E+00 6.000E+00 8.000E+00 1.000E+01 1.200E+01 1.400E+01

    Z VALUES ARE RELATIVE TO STREAMBED ELEVATION

     SEGMENT NO.          Z1        Z2        Z3        Z4        Z5        Z6        Z7        Z8
            1      6.000E+00 4.500E+00 3.500E+00 0.000E+00 3.000E-01 3.500E+00 4.500E+00 6.000E+00



 
 SOLVING FOR HEAD 
                                                   Max.-Head-Change                         Max.-Flux-Residual
  Residual-Control   Outer-Iter.   Inner-Iter.     Column Row Layer    Maximum-Head-Change  Column Row Layer    Maximum-Flux-Residual          L2-NORM 
          0                 1           2            50    3     1       0.6505983436E+00      50    3    1         0.2133460377E+00      0.2799061059E+00
          0                 2           2            50    3     1      -0.6308506103E-01      50    3    1        -0.2117656059E-01      0.2822098211E-01
          0                 3           2            50    3     1       0.5671119399E-02      50    3    1         0.1913360048E-02      0.2541844737E-02
          0                 4           2            50    3     1      -0.4493471343E-03      50    3    1        -0.1531761491E-03      0.2036561783E-03
          0                 5           1            50    3     1       0.3131906049E-04      50    3    1         0.1076973162E-04      0.1431742478E-04
          0                 6           1            50    3     1      -0.1880229283E-05      50    3    1        -0.6525600328E-06      0.8675838071E-06
          0                 7           1            50    3     1       0.9501532279E-07      50    3    1         0.3327538312E-07      0.4423878814E-07

    ------------------------------------------------
       NWT REQUIRED            7 OUTER ITERATIONS 
       AND A TOTAL OF         11 INNER ITERATIONS.
    ------------------------------------------------

 NO OUTPUT CONTROL FOR STRESS PERIOD   23   TIME STEP    1
 
 WELLS WITH REDUCED PUMPING FOR STRESS PERIOD    23 TIME STEP     1
   LAY   ROW   COL         APPL.Q          ACT.Q        GW-HEAD       CELL-BOT
     1     3    50  -0.581014E+00  -0.341994E+00   0.626478E+01   0.000000E+00
     1     5    55  -0.581014E+00  -0.287495E+00   0.551164E+01   0.000000E+00
 
 
 SOLVING FOR HEAD 
                                                   Max.-Head-Change                         Max.-Flux-Residual
  Residual-Control   Outer-Iter.   Inner-Iter.     Column Row Layer    Maximum-Head-Change  Column Row Layer    Maximum-Flux-Residual          L2-NORM 
          0                 1           2            50    3     1       0.4529347380E+00      50    3    1         0.1360464278E+00      0.1815052634E+00
          0                 2           2            50    3     1      -0.4260963183E-01      50    3    1        -0.1332542883E-01      0.1804341708E-01
          0                 3           2            50    3     1       0.3847862270E-02      50    3    1         0.1204902172E-02      0.1624373794E-02
          0                 4           2            50    3     1      -0.3046067567E-03      50    3    1        -0.9644069750E-04      0.1302075763E-03
          0                 5           1            50    3     1       0.2123491990E-04      50    3    1         0.6781061882E-05      0.9155132730E-05
          0                 6           1            50    3     1      -0.1274780455E-05      50    3    1        -0.4108719430E-06      0.5547946258E-06
          0                 7           1            50    3     1       0.6441971954E-07      50    3    1         0.2095124807E-07      0.2828995971E-07

    ------------------------------------------------
       NWT REQUIRED            7 OUTER ITERATIONS 
       AND A TOTAL OF         11 INNER ITERATIONS.
    ------------------------------------------------

 NO OUTPUT CONTROL FOR STRESS PERIOD   23   TIME STEP    2
 
 WELLS WITH REDUCED PUMPING FOR STRESS PERIOD    23 TIME STEP     2
   LAY   ROW   COL         APPL.Q          ACT.Q        GW-HEAD       CELL-BOT
     1     3    50  -0.579962E+00  -0.372728E+00   0.667867E+01   0.000000E+00
     1     5    55  -0.579962E+00  -0.314462E+00   0.586269E+01   0.000000E+00
 
 
 SOLVING FOR HEAD 
                                                   Max.-Head-Change                         Max.-Flux-Residual
  Residual-Control   Outer-Iter.   Inner-Iter.     Column Row Layer    Maximum-Head-Change  Column Row Layer    Maximum-Flux-Residual          L2-NORM 
          0                 1           2            50    3     1       0.3144462958E+00      50    3    1         0.8590848908E-01      0.1191940058E+00
          0                 2           2            50    3     1      -0.2890782533E-01      50    3    1        -0.8390602259E-02      0.1174379010E-01
          0                 3           2            50    3     1       0.2616440059E-02      50    3    1         0.7585749451E-03      0.1057145917E-02
          0                 4           2            50    3     1      -0.2070944645E-03      50    3    1        -0.6071581288E-04      0.8483160082E-04
          0                 5           1            50    3     1       0.1443612927E-04      50    3    1         0.4269072469E-05      0.5967324232E-05
          0                 6           1            50    3     1      -0.8666791473E-06      50    3    1        -0.2586713271E-06      0.3616728015E-06

    ------------------------------------------------
       NWT REQUIRED            6 OUTER ITERATIONS 
       AND A TOTAL OF         10 INNER ITERATIONS.
    ------------------------------------------------

 NO OUTPUT CONTROL FOR STRESS PERIOD   23   TIME STEP    3
 
 WELLS WITH REDUCED PUMPING FOR STRESS PERIOD    23 TIME STEP     3
   LAY   ROW   COL         APPL.Q          ACT.Q        GW-HEAD       CELL-BOT
     1     3    50  -0.580047E+00  -0.394082E+00   0.696663E+01   0.000000E+00
     1     5    55  -0.580047E+00  -0.333425E+00   0.610555E+01   0.000000E+00
 
 
 SOLVING FOR HEAD 
                                                   Max.-Head-Change                         Max.-Flux-Residual
  Residual-Control   Outer-Iter.   Inner-Iter.     Column Row Layer    Maximum-Head-Change  Column Row Layer    Maximum-Flux-Residual          L2-NORM 
          0                 1           2            50    3     1       0.2205076875E+00      50    3    1         0.5442408394E-01      0.8176219323E-01
          0                 2           2            50    3     1      -0.1985092905E-01      50    3    1        -0.5319815470E-02      0.7992446883E-02
          0                 3           2            50    3     1       0.1797330721E-02      50    3    1         0.4807389529E-03      0.7210662251E-03
          0                 4           2            50    3     1      -0.1423166664E-03      50    3    1        -0.3848158351E-04      0.5800079584E-04
          0                 5           1            50    3     1       0.9918728398E-05      50    3    1         0.2705605249E-05      0.4084687451E-05
          0                 6           1            50    3     1      -0.5955180351E-06      50    3    1        -0.1639410129E-06      0.2476776698E-06

    ------------------------------------------------
       NWT REQUIRED            6 OUTER ITERATIONS 
       AND A TOTAL OF         10 INNER ITERATIONS.
    ------------------------------------------------

 NO OUTPUT CONTROL FOR STRESS PERIOD   23   TIME STEP    4
 
 WELLS WITH REDUCED PUMPING FOR STRESS PERIOD    23 TIME STEP     4
   LAY   ROW   COL         APPL.Q          ACT.Q        GW-HEAD       CELL-BOT
     1     3    50  -0.579969E+00  -0.408663E+00   0.716895E+01   0.000000E+00
     1     5    55  -0.579969E+00  -0.346404E+00   0.627397E+01   0.000000E+00
 
 
 SOLVING FOR HEAD 
                                                   Max.-Head-Change                         Max.-Flux-Residual
  Residual-Control   Outer-Iter.   Inner-Iter.     Column Row Layer    Maximum-Head-Change  Column Row Layer    Maximum-Flux-Residual          L2-NORM 
          0                 1           2            50    3     1       0.1566705797E+00      50    3    1         0.3467884703E-01      0.5996952237E-01
          0                 2           2            50    3     1      -0.1381331567E-01      50    3    1        -0.3394952217E-02      0.5829969467E-02
          0                 3           2            50    3     1       0.1248830002E-02      50    3    1         0.3066313135E-03      0.5290866635E-03
          0                 4           1            50    3     1      -0.9895228236E-04      50    3    1        -0.2454840169E-04      0.4274812234E-04
          0                 5           1            50    3     1       0.6894986518E-05      50    3    1         0.1725855425E-05      0.3017690297E-05
          0                 6           1            50    3     1      -0.4139938501E-06      50    3    1        -0.1045758796E-06      0.1831610259E-06

    ------------------------------------------------
       NWT REQUIRED            6 OUTER ITERATIONS 
       AND A TOTAL OF          9 INNER ITERATIONS.
    ------------------------------------------------

 NO OUTPUT CONTROL FOR STRESS PERIOD   23   TIME STEP    5
 
 WELLS WITH REDUCED PUMPING FOR STRESS PERIOD    23 TIME STEP     5
   LAY   ROW   COL         APPL.Q          ACT.Q        GW-HEAD       CELL-BOT
     1     3    50  -0.580040E+00  -0.418939E+00   0.731296E+01   0.000000E+00
     1     5    55  -0.580040E+00  -0.355478E+00   0.639155E+01   0.000000E+00
 
 
 SOLVING FOR HEAD 
                                                   Max.-Head-Change                         Max.-Flux-Residual
  Residual-Control   Outer-Iter.   Inner-Iter.     Column Row Layer    Maximum-Head-Change  Column Row Layer    Maximum-Flux-Residual          L2-NORM 
          0                 1           2            50    3     1       0.1142113216E+00      50    3    1         0.2252555724E-01      0.4787875046E-01
          0                 2           2            50    3     1      -0.9868313688E-02      50    3    1        -0.2207545397E-02      0.4652059638E-02
          0                 3           2            50    3     1       0.8892001037E-03      50    3    1         0.1992710584E-03      0.4259534040E-03
          0                 4           1            50    3     1      -0.7050693077E-04      50    3    1        -0.1595574121E-04      0.3463511687E-04
          0                 5           1            50    3     1       0.4912161783E-05      50    3    1         0.1121692297E-05      0.2454005061E-05
          0                 6           1            50    3     1      -0.2949446205E-06      50    3    1        -0.6796695645E-07      0.1491994128E-06

    ------------------------------------------------
       NWT REQUIRED            6 OUTER ITERATIONS 
       AND A TOTAL OF          9 INNER ITERATIONS.
    ------------------------------------------------

 NO OUTPUT CONTROL FOR STRESS PERIOD   23   TIME STEP    6
 
 WELLS WITH REDUCED PUMPING FOR STRESS PERIOD    23 TIME STEP     6
   LAY   ROW   COL         APPL.Q          ACT.Q        GW-HEAD       CELL-BOT
     1     3    50  -0.579967E+00  -0.426243E+00   0.741813E+01   0.000000E+00
     1     5    55  -0.579967E+00  -0.361836E+00   0.647537E+01   0.000000E+00
 
 
 SOLVING FOR HEAD 
                                                   Max.-Head-Change                         Max.-Flux-Residual
  Residual-Control   Outer-Iter.   Inner-Iter.     Column Row Layer    Maximum-Head-Change  Column Row Layer    Maximum-Flux-Residual          L2-NORM 
          0                 1           2            50    3     1       0.8530194355E-01      50    3    1         0.1488218889E-01      0.4113012615E-01
          0                 2           2            50    2     1      -0.8001864218E-02      50    3    1        -0.1459100274E-02      0.4008795336E-02
          0                 3           2            50    2     1       0.7138483800E-03      50    3    1         0.1316225492E-03      0.3705764442E-03
          0                 4           1            50    2     1      -0.5665842540E-04      50    3    1        -0.1054024714E-04      0.3035433429E-04
          0                 5           1            50    2     1       0.3946900389E-05      50    3    1         0.7409480897E-06      0.2160605517E-05
          0                 6           1            50    2     1      -0.2369969983E-06      50    3    1        -0.4489538080E-07      0.1316669984E-06

    ------------------------------------------------
       NWT REQUIRED            6 OUTER ITERATIONS 
       AND A TOTAL OF          9 INNER ITERATIONS.
    ------------------------------------------------

 NO OUTPUT CONTROL FOR STRESS PERIOD   23   TIME STEP    7
 
 WELLS WITH REDUCED PUMPING FOR STRESS PERIOD    23 TIME STEP     7
   LAY   ROW   COL         APPL.Q          ACT.Q        GW-HEAD       CELL-BOT
     1     3    50  -0.580016E+00  -0.431718E+00   0.749680E+01   0.000000E+00
     1     5    55  -0.580016E+00  -0.366508E+00   0.653639E+01   0.000000E+00
 
 
 SOLVING FOR HEAD 
                                                   Max.-Head-Change                         Max.-Flux-Residual
  Residual-Control   Outer-Iter.   Inner-Iter.     Column Row Layer    Maximum-Head-Change  Column Row Layer    Maximum-Flux-Residual          L2-NORM 
          0                 1           2            50    2     1       0.7504344951E-01      50    3    1         0.1014037774E-01      0.3731157612E-01
          0                 2           2            50    2     1      -0.7315750261E-02      50    3    1        -0.9940012714E-03      0.3653022395E-02
          0                 3           2            50    2     1       0.6521015431E-03      50    3    1         0.8962423846E-04      0.3406399749E-03
          0                 4           1            50    2     1      -0.5176032382E-04      50    3    1        -0.7177647165E-05      0.2810542308E-04
          0                 5           1            50    2     1       0.3605637403E-05      50    3    1         0.5045371105E-06      0.2010309484E-05
          0                 6           1            50    2     1      -0.2165034533E-06      50    3    1        -0.3056955428E-07      0.1228393319E-06

    ------------------------------------------------
       NWT REQUIRED            6 OUTER ITERATIONS 
       AND A TOTAL OF          9 INNER ITERATIONS.
    ------------------------------------------------

 NO OUTPUT CONTROL FOR STRESS PERIOD   23   TIME STEP    8
 
 WELLS WITH REDUCED PUMPING FOR STRESS PERIOD    23 TIME STEP     8
   LAY   ROW   COL         APPL.Q          ACT.Q        GW-HEAD       CELL-BOT
     1     3    50  -0.580024E+00  -0.435896E+00   0.755773E+01   0.000000E+00
     1     5    55  -0.580024E+00  -0.369996E+00   0.658235E+01   0.000000E+00
 
 
 SOLVING FOR HEAD 
                                                   Max.-Head-Change                         Max.-Flux-Residual
  Residual-Control   Outer-Iter.   Inner-Iter.     Column Row Layer    Maximum-Head-Change  Column Row Layer    Maximum-Flux-Residual          L2-NORM 
          0                 1           2            50    2     1       0.6827621751E-01      50    2    1         0.8011132433E-02      0.3501892215E-01
          0                 2           2            50    2     1      -0.6655223309E-02      50    2    1        -0.8048433816E-03      0.3439688418E-02
          0                 3           2            50    2     1       0.5927533677E-03      50    2    1         0.7239152444E-04      0.3231269053E-03
          0                 4           1            50    2     1      -0.4705066143E-04      50    2    1        -0.5798917639E-05      0.2684708515E-04
          0                 5           1            50    2     1       0.3277507584E-05      50    2    1         0.4076560452E-06      0.1930051628E-05
          0                 6           1            50    2     1      -0.1967978009E-06      50    2    1        -0.2470235680E-07      0.1182958126E-06

    ------------------------------------------------
       NWT REQUIRED            6 OUTER ITERATIONS 
       AND A TOTAL OF          9 INNER ITERATIONS.
    ------------------------------------------------

 NO OUTPUT CONTROL FOR STRESS PERIOD   23   TIME STEP    9
 
 WELLS WITH REDUCED PUMPING FOR STRESS PERIOD    23 TIME STEP     9
   LAY   ROW   COL         APPL.Q          ACT.Q        GW-HEAD       CELL-BOT
     1     3    50  -0.579976E+00  -0.439190E+00   0.760673E+01   0.000000E+00
     1     5    55  -0.579976E+00  -0.372686E+00   0.661835E+01   0.000000E+00
 
 
 SOLVING FOR HEAD 
                                                   Max.-Head-Change                         Max.-Flux-Residual
  Residual-Control   Outer-Iter.   Inner-Iter.     Column Row Layer    Maximum-Head-Change  Column Row Layer    Maximum-Flux-Residual          L2-NORM 
          0                 1           2            50    2     1       0.6210215684E-01      50    2    1         0.6626131391E-02      0.3349077908E-01
          0                 2           2            50    2     1      -0.6050216424E-02      50    2    1        -0.6657244899E-03      0.3298376780E-02
          0                 3           2            50    2     1       0.5384451755E-03      50    2    1         0.5987887102E-04      0.3118085107E-03
          0                 4           1            50    2     1      -0.4273769376E-04      50    2    1        -0.4796590804E-05      0.2608241292E-04
          0                 5           1            50    2     1       0.2976999070E-05      50    2    1         0.3371938387E-06      0.1884862016E-05
          0                 6           1            50    2     1      -0.1787495877E-06      50    2    1        -0.2043262295E-07      0.1159155793E-06

    ------------------------------------------------
       NWT REQUIRED            6 OUTER ITERATIONS 
       AND A TOTAL OF          9 INNER ITERATIONS.
    ------------------------------------------------

 NO OUTPUT CONTROL FOR STRESS PERIOD   23   TIME STEP   10
 
 WELLS WITH REDUCED PUMPING FOR STRESS PERIOD    23 TIME STEP    10
   LAY   ROW   COL         APPL.Q          ACT.Q        GW-HEAD       CELL-BOT
     1     3    50  -0.580013E+00  -0.441946E+00   0.764715E+01   0.000000E+00
     1     5    55  -0.580013E+00  -0.374891E+00   0.664727E+01   0.000000E+00
 
 
 SOLVING FOR HEAD 
                                                   Max.-Head-Change                         Max.-Flux-Residual
  Residual-Control   Outer-Iter.   Inner-Iter.     Column Row Layer    Maximum-Head-Change  Column Row Layer    Maximum-Flux-Residual          L2-NORM 
          0                 1           2            50    1     1       0.5763006410E-01      50    2    1         0.5479287045E-02      0.3244205008E-01
          0                 2           2            50    1     1      -0.5693278746E-02      50    2    1        -0.5503594326E-03      0.3197056218E-02
          0                 3           2            50    1     1       0.5073275950E-03      50    2    1         0.4950409688E-04      0.3038145409E-03
          0                 4           1            50    1     1      -0.4026642410E-04      50    2    1        -0.3965507267E-05      0.2558306981E-04
          0                 5           1            50    1     1       0.2804090834E-05      50    2    1         0.2787698747E-06      0.1858954519E-05
          0                 6           1            50    1     1      -0.1683246257E-06      50    2    1        -0.1689235957E-07      0.1147595013E-06

    ------------------------------------------------
       NWT REQUIRED            6 OUTER ITERATIONS 
       AND A TOTAL OF          9 INNER ITERATIONS.
    ------------------------------------------------

 NO OUTPUT CONTROL FOR STRESS PERIOD   23   TIME STEP   11
 
 WELLS WITH REDUCED PUMPING FOR STRESS PERIOD    23 TIME STEP    11
   LAY   ROW   COL         APPL.Q          ACT.Q        GW-HEAD       CELL-BOT
     1     3    50  -0.580019E+00  -0.444266E+00   0.768165E+01   0.000000E+00
     1     5    55  -0.580019E+00  -0.376708E+00   0.667138E+01   0.000000E+00
 
 
 SOLVING FOR HEAD 
                                                   Max.-Head-Change                         Max.-Flux-Residual
  Residual-Control   Outer-Iter.   Inner-Iter.     Column Row Layer    Maximum-Head-Change  Column Row Layer    Maximum-Flux-Residual          L2-NORM 
          0                 1           2            50    1     1       0.5590315489E-01      50    1    1         0.4616154306E-02      0.3169973093E-01
          0                 2           2            50    1     1      -0.5521912121E-02      50    1    1        -0.4628045296E-03      0.3122247099E-02
          0                 3           2            50    1     1       0.4919174301E-03      50    1    1         0.4163994850E-04      0.2980085415E-03
          0                 4           1            50    1     1      -0.3904107121E-04      50    1    1        -0.3335460722E-05      0.2525558163E-04
          0                 5           1            50    1     1       0.2718318335E-05      50    1    1         0.2343348107E-06      0.1845556890E-05
          0                 6           1            50    1     1      -0.1631526451E-06      50    1    1        -0.1419164192E-07      0.1144131752E-06

    ------------------------------------------------
       NWT REQUIRED            6 OUTER ITERATIONS 
       AND A TOTAL OF          9 INNER ITERATIONS.
    ------------------------------------------------

 NO OUTPUT CONTROL FOR STRESS PERIOD   23   TIME STEP   12
 
 WELLS WITH REDUCED PUMPING FOR STRESS PERIOD    23 TIME STEP    12
   LAY   ROW   COL         APPL.Q          ACT.Q        GW-HEAD       CELL-BOT
     1     3    50  -0.579978E+00  -0.446266E+00   0.771206E+01   0.000000E+00
     1     5    55  -0.579978E+00  -0.378244E+00   0.669218E+01   0.000000E+00
 
 
 SOLVING FOR HEAD 
                                                   Max.-Head-Change                         Max.-Flux-Residual
  Residual-Control   Outer-Iter.   Inner-Iter.     Column Row Layer    Maximum-Head-Change  Column Row Layer    Maximum-Flux-Residual          L2-NORM 
          0                 1           2            50    1     1       0.5343914026E-01      50    1    1         0.4070799838E-02      0.3112921509E-01
          0                 2           2            50    1     1      -0.5276118053E-02      50    1    1        -0.4082672012E-03      0.3066971909E-02
          0                 3           2            50    1     1       0.4698643750E-03      50    1    1         0.3673165538E-04      0.2939585059E-03
          0                 4           1            50    1     1      -0.3728735382E-04      50    1    1        -0.2942305893E-05      0.2506751349E-04
          0                 5           1            50    1     1       0.2595605845E-05      50    1    1         0.2066540798E-06      0.1842118295E-05
          0                 6           1            50    1     1      -0.1557568106E-06      50    1    1        -0.1251209347E-07      0.1146968658E-06

    ------------------------------------------------
       NWT REQUIRED            6 OUTER ITERATIONS 
       AND A TOTAL OF          9 INNER ITERATIONS.
    ------------------------------------------------

 NO OUTPUT CONTROL FOR STRESS PERIOD   23   TIME STEP   13
 
 WELLS WITH REDUCED PUMPING FOR STRESS PERIOD    23 TIME STEP    13
   LAY   ROW   COL         APPL.Q          ACT.Q        GW-HEAD       CELL-BOT
     1     3    50  -0.579982E+00  -0.448075E+00   0.773921E+01   0.000000E+00
     1     5    55  -0.579982E+00  -0.379609E+00   0.671033E+01   0.000000E+00
 
 
 SOLVING FOR HEAD 
                                                   Max.-Head-Change                         Max.-Flux-Residual
  Residual-Control   Outer-Iter.   Inner-Iter.     Column Row Layer    Maximum-Head-Change  Column Row Layer    Maximum-Flux-Residual          L2-NORM 
          0                 1           2            50    1     1       0.5047730643E-01      50    1    1         0.3537762455E-02      0.3067936599E-01
          0                 2           2            50    1     1      -0.4980283573E-02      50    1    1        -0.3548619788E-03      0.3021978043E-02
          0                 3           2            50    1     1       0.4433405560E-03      50    1    1         0.3192624378E-04      0.2906961035E-03
          0                 4           1            50    1     1      -0.3517752077E-04      50    1    1        -0.2557383981E-05      0.2493971513E-04
          0                 5           1            50    1     1       0.2447917634E-05      50    1    1         0.1795451181E-06      0.1843199984E-05
          0                 6           1            50    1     1      -0.1468541779E-06      50    1    1        -0.1086688550E-07      0.1152938937E-06

    ------------------------------------------------
       NWT REQUIRED            6 OUTER ITERATIONS 
       AND A TOTAL OF          9 INNER ITERATIONS.
    ------------------------------------------------

 NO OUTPUT CONTROL FOR STRESS PERIOD   23   TIME STEP   14
 
 WELLS WITH REDUCED PUMPING FOR STRESS PERIOD    23 TIME STEP    14
   LAY   ROW   COL         APPL.Q          ACT.Q        GW-HEAD       CELL-BOT
     1     3    50  -0.580012E+00  -0.449723E+00   0.776377E+01   0.000000E+00
     1     5    55  -0.580012E+00  -0.380830E+00   0.672637E+01   0.000000E+00
 
 
 SOLVING FOR HEAD 
                                                   Max.-Head-Change                         Max.-Flux-Residual
  Residual-Control   Outer-Iter.   Inner-Iter.     Column Row Layer    Maximum-Head-Change  Column Row Layer    Maximum-Flux-Residual          L2-NORM 
          0                 1           2            50    1     1       0.4720747291E-01      50    1    1         0.3038090749E-02      0.3030436188E-01
          0                 2           2            50    1     1      -0.4654273447E-02      50    1    1        -0.3047439640E-03      0.2986569844E-02
          0                 3           2            50    1     1       0.4141287960E-03      50    1    1         0.2741719225E-04      0.2883074221E-03
          0                 4           1            50    1     1      -0.3285272762E-04      50    1    1        -0.2196196395E-05      0.2487960030E-04
          0                 5           1            50    1     1       0.2285041188E-05      50    1    1         0.1540976911E-06      0.1848831122E-05
          0                 6           1            50    1     1      -0.1370314103E-06      74    4    1        -0.9364340414E-08      0.1161684775E-06

    ------------------------------------------------
       NWT REQUIRED            6 OUTER ITERATIONS 
       AND A TOTAL OF          9 INNER ITERATIONS.
    ------------------------------------------------

 NO OUTPUT CONTROL FOR STRESS PERIOD   23   TIME STEP   15
 
 WELLS WITH REDUCED PUMPING FOR STRESS PERIOD    23 TIME STEP    15
   LAY   ROW   COL         APPL.Q          ACT.Q        GW-HEAD       CELL-BOT
     1     3    50  -0.580012E+00  -0.451201E+00   0.778616E+01   0.000000E+00
     1     5    55  -0.580012E+00  -0.381896E+00   0.674063E+01   0.000000E+00
 
 
 SOLVING FOR HEAD 
                                                   Max.-Head-Change                         Max.-Flux-Residual
  Residual-Control   Outer-Iter.   Inner-Iter.     Column Row Layer    Maximum-Head-Change  Column Row Layer    Maximum-Flux-Residual          L2-NORM 
          0                 1           2            50    1     1       0.4377713927E-01      50    1    1         0.2583166581E-02      0.2999066520E-01
          0                 2           2            50    1     1      -0.4310735228E-02      50    1    1        -0.2590852552E-03      0.2955112911E-02
          0                 3           2            50    1     1       0.3833355258E-03      50    1    1         0.2330960190E-04      0.2861580440E-03
          0                 4           1            50    1     1      -0.3040135495E-04      50    1    1        -0.1867164869E-05      0.2483154741E-04
          0                 5           1            50    1     1       0.2113107531E-05      74    4    1         0.1477147826E-06      0.1855193745E-05
          0                 6           1            50    1     1      -0.1266552612E-06      74    4    1        -0.9792575639E-08      0.1171092940E-06

    ------------------------------------------------
       NWT REQUIRED            6 OUTER ITERATIONS 
       AND A TOTAL OF          9 INNER ITERATIONS.
    ------------------------------------------------

 NO OUTPUT CONTROL FOR STRESS PERIOD   23   TIME STEP   16
 
 WELLS WITH REDUCED PUMPING FOR STRESS PERIOD    23 TIME STEP    16
   LAY   ROW   COL         APPL.Q          ACT.Q        GW-HEAD       CELL-BOT
     1     3    50  -0.580012E+00  -0.452555E+00   0.780676E+01   0.000000E+00
     1     5    55  -0.580012E+00  -0.382848E+00   0.675336E+01   0.000000E+00
 
 
 SOLVING FOR HEAD 
                                                   Max.-Head-Change                         Max.-Flux-Residual
  Residual-Control   Outer-Iter.   Inner-Iter.     Column Row Layer    Maximum-Head-Change  Column Row Layer    Maximum-Flux-Residual          L2-NORM 
          0                 1           2            50    1     1       0.4032470539E-01      50    1    1         0.2177948128E-02      0.2973859656E-01
          0                 2           2            50    1     1      -0.3963630185E-02      50    1    1        -0.2183996193E-03      0.2928706252E-02
          0                 3           2            50    1     1       0.3521766062E-03      50    1    1         0.1964954606E-04      0.2843629431E-03
          0                 4           1            50    1     1      -0.2791874266E-04      73    4    1        -0.1802613372E-05      0.2480730636E-04
          0                 5           1            50    1     1       0.1938717117E-05      73    4    1         0.1512850449E-06      0.1863036865E-05
          0                 6           1            50    1     1      -0.1161214663E-06      73    4    1        -0.1005497552E-07      0.1181482652E-06

    ------------------------------------------------
       NWT REQUIRED            6 OUTER ITERATIONS 
       AND A TOTAL OF          9 INNER ITERATIONS.
    ------------------------------------------------

 NO OUTPUT CONTROL FOR STRESS PERIOD   23   TIME STEP   17
 
 WELLS WITH REDUCED PUMPING FOR STRESS PERIOD    23 TIME STEP    17
   LAY   ROW   COL         APPL.Q          ACT.Q        GW-HEAD       CELL-BOT
     1     3    50  -0.579993E+00  -0.453808E+00   0.782613E+01   0.000000E+00
     1     5    55  -0.579993E+00  -0.383708E+00   0.676505E+01   0.000000E+00
 
 
 SOLVING FOR HEAD 
                                                   Max.-Head-Change                         Max.-Flux-Residual
  Residual-Control   Outer-Iter.   Inner-Iter.     Column Row Layer    Maximum-Head-Change  Column Row Layer    Maximum-Flux-Residual          L2-NORM 
          0                 1           2            51    1     1       0.3839866645E-01      50    1    1         0.1824118965E-02      0.2953305448E-01
          0                 2           2            51    1     1      -0.3751360747E-02      50    1    1        -0.1828712127E-03      0.2906716767E-02
          0                 3           2            51    1     1       0.3328211777E-03      50    1    1         0.1645346164E-04      0.2828839537E-03
          0                 4           1            51    1     1      -0.2638205892E-04      73    4    1        -0.1848436263E-05      0.2480051236E-04
          0                 5           1            51    1     1       0.1834719889E-05      73    4    1         0.1562262817E-06      0.1871506745E-05
          0                 6           1            51    1     1      -0.1100323508E-06      73    4    1        -0.1044988984E-07      0.1192154227E-06

    ------------------------------------------------
       NWT REQUIRED            6 OUTER ITERATIONS 
       AND A TOTAL OF          9 INNER ITERATIONS.
    ------------------------------------------------

 NO OUTPUT CONTROL FOR STRESS PERIOD   23   TIME STEP   18
 
 WELLS WITH REDUCED PUMPING FOR STRESS PERIOD    23 TIME STEP    18
   LAY   ROW   COL         APPL.Q          ACT.Q        GW-HEAD       CELL-BOT
     1     3    50  -0.579990E+00  -0.454990E+00   0.784426E+01   0.000000E+00
     1     5    55  -0.579990E+00  -0.384498E+00   0.677568E+01   0.000000E+00
 
 
 SOLVING FOR HEAD 
                                                   Max.-Head-Change                         Max.-Flux-Residual
  Residual-Control   Outer-Iter.   Inner-Iter.     Column Row Layer    Maximum-Head-Change  Column Row Layer    Maximum-Flux-Residual          L2-NORM 
          0                 1           2            74    7     1      -0.3974966058E-01      51    1    1         0.1580016199E-02      0.2935562046E-01
          0                 2           2            51    1     1      -0.3713465370E-02      51    1    1        -0.1583501429E-03      0.2889155537E-02
          0                 3           2            51    1     1       0.3289746140E-03      72    4    1         0.1603923295E-04      0.2818027124E-03
          0                 4           1            51    1     1      -0.2606021567E-04      72    4    1        -0.1877347772E-05      0.2482197317E-04
          0                 5           1            51    1     1       0.1810819922E-05      72    4    1         0.1607155440E-06      0.1881303076E-05
          0                 6           1            51    1     1      -0.1085402360E-06      72    4    1        -0.1086315926E-07      0.1203341497E-06

    ------------------------------------------------
       NWT REQUIRED            6 OUTER ITERATIONS 
       AND A TOTAL OF          9 INNER ITERATIONS.
    ------------------------------------------------

 NO OUTPUT CONTROL FOR STRESS PERIOD   23   TIME STEP   19
 
 WELLS WITH REDUCED PUMPING FOR STRESS PERIOD    23 TIME STEP    19
   LAY   ROW   COL         APPL.Q          ACT.Q        GW-HEAD       CELL-BOT
     1     3    50  -0.579987E+00  -0.456090E+00   0.786119E+01   0.000000E+00
     1     5    55  -0.579987E+00  -0.385215E+00   0.678531E+01   0.000000E+00
 
 
 SOLVING FOR HEAD 
                                                   Max.-Head-Change                         Max.-Flux-Residual
  Residual-Control   Outer-Iter.   Inner-Iter.     Column Row Layer    Maximum-Head-Change  Column Row Layer    Maximum-Flux-Residual          L2-NORM 
          0                 1           2            73    7     1      -0.4375830540E-01      73    3    1        -0.1500164569E-02      0.2922430041E-01
          0                 2           2            73    7     1       0.3945930530E-02      73    3    1         0.1500053106E-03      0.2872107122E-02
          0                 3           2            73    7     1      -0.3247473652E-03      72    4    1         0.1628489072E-04      0.2804115305E-03
          0                 4           1            51    1     1      -0.2553560748E-04      72    4    1        -0.1921554713E-05      0.2480078898E-04
          0                 5           1            51    1     1       0.1772200285E-05      72    4    1         0.1657384168E-06      0.1887125324E-05
          0                 6           1            51    1     1      -0.1061416186E-06      72    4    1        -0.1127885874E-07      0.1212012590E-06

    ------------------------------------------------
       NWT REQUIRED            6 OUTER ITERATIONS 
       AND A TOTAL OF          9 INNER ITERATIONS.
    ------------------------------------------------

 NO OUTPUT CONTROL FOR STRESS PERIOD   23   TIME STEP   20
 
 WELLS WITH REDUCED PUMPING FOR STRESS PERIOD    23 TIME STEP    20
   LAY   ROW   COL         APPL.Q          ACT.Q        GW-HEAD       CELL-BOT
     1     3    50  -0.580007E+00  -0.457111E+00   0.787667E+01   0.000000E+00
     1     5    55  -0.580007E+00  -0.385851E+00   0.679368E+01   0.000000E+00
 
 
 SOLVING FOR HEAD 
                                                   Max.-Head-Change                         Max.-Flux-Residual
  Residual-Control   Outer-Iter.   Inner-Iter.     Column Row Layer    Maximum-Head-Change  Column Row Layer    Maximum-Flux-Residual          L2-NORM 
          0                 1           2            73    7     1      -0.4806088577E-01      73    3    1        -0.1508531076E-02      0.2928830205E-01
          0                 2           2            73    7     1       0.4323581159E-02      73    3    1         0.1508281330E-03      0.2855898146E-02
          0                 3           2            73    7     1      -0.3544262333E-03      71    4    1         0.1635516937E-04      0.2781241019E-03
          0                 4           1            73    7     1       0.2620854658E-04      71    4    1        -0.1942424261E-05      0.2468001812E-04
          0                 5           1            51    1     1       0.1721291262E-05      71    4    1         0.1659955391E-06      0.1885173978E-05
          0                 6           1            51    1     1      -0.1029644209E-06      74    4    1        -0.1137500760E-07      0.1216302703E-06

    ------------------------------------------------
       NWT REQUIRED            6 OUTER ITERATIONS 
       AND A TOTAL OF          9 INNER ITERATIONS.
    ------------------------------------------------

 NO OUTPUT CONTROL FOR STRESS PERIOD   23   TIME STEP   21
 
 WELLS WITH REDUCED PUMPING FOR STRESS PERIOD    23 TIME STEP    21
   LAY   ROW   COL         APPL.Q          ACT.Q        GW-HEAD       CELL-BOT
     1     3    50  -0.580000E+00  -0.458040E+00   0.789111E+01   0.000000E+00
     1     5    55  -0.580000E+00  -0.386401E+00   0.680113E+01   0.000000E+00
 
 
 SOLVING FOR HEAD 
                                                   Max.-Head-Change                         Max.-Flux-Residual
  Residual-Control   Outer-Iter.   Inner-Iter.     Column Row Layer    Maximum-Head-Change  Column Row Layer    Maximum-Flux-Residual          L2-NORM 
          0                 1           2            72    7     1      -0.5280169361E-01      73    3    1        -0.1499439475E-02      0.2943618764E-01
          0                 2           2            73    7     1       0.4730114236E-02      73    3    1         0.1499223358E-03      0.2865647617E-02
          0                 3           2            73    7     1      -0.3857733856E-03      71    4    1         0.1656287271E-04      0.2790354160E-03
          0                 4           1            73    7     1       0.2835647822E-04      71    4    1        -0.1981432021E-05      0.2484176404E-04
          0                 5           1            72    7     1      -0.1847133613E-05      70    4    1         0.1700388772E-06      0.1902441037E-05
          0                 6           1            69    7     1       0.1055985575E-06      70    4    1        -0.1169049391E-07      0.1231493583E-06

    ------------------------------------------------
       NWT REQUIRED            6 OUTER ITERATIONS 
       AND A TOTAL OF          9 INNER ITERATIONS.
    ------------------------------------------------

 NO OUTPUT CONTROL FOR STRESS PERIOD   23   TIME STEP   22
 
 WELLS WITH REDUCED PUMPING FOR STRESS PERIOD    23 TIME STEP    22
   LAY   ROW   COL         APPL.Q          ACT.Q        GW-HEAD       CELL-BOT
     1     3    50  -0.579996E+00  -0.458879E+00   0.790415E+01   0.000000E+00
     1     5    55  -0.579996E+00  -0.386870E+00   0.680747E+01   0.000000E+00
 
 
 SOLVING FOR HEAD 
                                                   Max.-Head-Change                         Max.-Flux-Residual
  Residual-Control   Outer-Iter.   Inner-Iter.     Column Row Layer    Maximum-Head-Change  Column Row Layer    Maximum-Flux-Residual          L2-NORM 
          0                 1           3            77    4     1      -0.5935149703E-01      72    3    1        -0.1503600909E-02      0.2953285966E-01
          0                 2           2            77    7     1       0.5218152166E-02      72    3    1         0.1503338004E-03      0.2882357044E-02
          0                 3           2            78    7     1      -0.4235144175E-03      70    4    1         0.1660011247E-04      0.2810505635E-03
          0                 4           1            78    7     1       0.3084630315E-04      70    4    1        -0.1996399583E-05      0.2509505817E-04
          0                 5           1            72    7     1      -0.1991886939E-05      70    4    1         0.1752974814E-06      0.1924078757E-05
          0                 6           1            71    7     1       0.1131678002E-06      70    4    1        -0.1213406797E-07      0.1247986190E-06

    ------------------------------------------------
       NWT REQUIRED            6 OUTER ITERATIONS 
       AND A TOTAL OF         10 INNER ITERATIONS.
    ------------------------------------------------

 NO OUTPUT CONTROL FOR STRESS PERIOD   23   TIME STEP   23
 
 WELLS WITH REDUCED PUMPING FOR STRESS PERIOD    23 TIME STEP    23
   LAY   ROW   COL         APPL.Q          ACT.Q        GW-HEAD       CELL-BOT
     1     3    50  -0.579992E+00  -0.459644E+00   0.791605E+01   0.000000E+00
     1     5    55  -0.579992E+00  -0.387255E+00   0.681269E+01   0.000000E+00
 
 
 SOLVING FOR HEAD 
                                                   Max.-Head-Change                         Max.-Flux-Residual
  Residual-Control   Outer-Iter.   Inner-Iter.     Column Row Layer    Maximum-Head-Change  Column Row Layer    Maximum-Flux-Residual          L2-NORM 
          0                 1           3            75    4     1      -0.6616758273E-01      77    3    1        -0.1523321055E-02      0.2956996191E-01
          0                 2           2            76    7     1       0.5821563711E-02      77    3    1         0.1523256126E-03      0.2889900670E-02
          0                 3           2            76    7     1      -0.4706651692E-03      69    4    1         0.1641504531E-04      0.2820100508E-03
          0                 4           1            76    7     1       0.3411660452E-04      70    4    1        -0.1989687373E-05      0.2524894814E-04
          0                 5           1            75    7     1      -0.2172753262E-05      70    4    1         0.1771057470E-06      0.1936489354E-05
          0                 6           1            73    7     1       0.1215670143E-06      70    4    1        -0.1238844050E-07      0.1257711919E-06

    ------------------------------------------------
       NWT REQUIRED            6 OUTER ITERATIONS 
       AND A TOTAL OF         10 INNER ITERATIONS.
    ------------------------------------------------

 NO OUTPUT CONTROL FOR STRESS PERIOD   23   TIME STEP   24
 
 WELLS WITH REDUCED PUMPING FOR STRESS PERIOD    23 TIME STEP    24
   LAY   ROW   COL         APPL.Q          ACT.Q        GW-HEAD       CELL-BOT
     1     3    50  -0.579997E+00  -0.460258E+00   0.792554E+01   0.000000E+00
     1     5    55  -0.579997E+00  -0.387493E+00   0.681586E+01   0.000000E+00
 
 
 SOLVING FOR HEAD 
                                                   Max.-Head-Change                         Max.-Flux-Residual
  Residual-Control   Outer-Iter.   Inner-Iter.     Column Row Layer    Maximum-Head-Change  Column Row Layer    Maximum-Flux-Residual          L2-NORM 
          0                 1           3            74    4     1      -0.7270701892E-01      75    3    1        -0.1547405403E-02      0.2957238336E-01
          0                 2           2            75    7     1       0.6447559888E-02      75    3    1         0.1547189307E-03      0.2888557957E-02
          0                 3           2            75    7     1      -0.5200546480E-03      67    4    1         0.1576155573E-04      0.2819851977E-03
          0                 4           1            75    7     1       0.3757337448E-04      69    4    1        -0.1946781376E-05      0.2531359355E-04
          0                 5           1            75    7     1      -0.2374771146E-05      76    4    1         0.1759113495E-06      0.1940802320E-05
          0                 6           1            73    7     1       0.1318661095E-06      76    4    1        -0.1266455563E-07      0.1261711883E-06

    ------------------------------------------------
       NWT REQUIRED            6 OUTER ITERATIONS 
       AND A TOTAL OF         10 INNER ITERATIONS.
    ------------------------------------------------

 NO OUTPUT CONTROL FOR STRESS PERIOD   23   TIME STEP   25
 
 WELLS WITH REDUCED PUMPING FOR STRESS PERIOD    23 TIME STEP    25
   LAY   ROW   COL         APPL.Q          ACT.Q        GW-HEAD       CELL-BOT
     1     3    50  -0.580006E+00  -0.460749E+00   0.793308E+01   0.000000E+00
     1     5    55  -0.580006E+00  -0.387605E+00   0.681728E+01   0.000000E+00
 
 
 SOLVING FOR HEAD 
                                                   Max.-Head-Change                         Max.-Flux-Residual
  Residual-Control   Outer-Iter.   Inner-Iter.     Column Row Layer    Maximum-Head-Change  Column Row Layer    Maximum-Flux-Residual          L2-NORM 
          0                 1           3            73    1     1      -0.7986363413E-01      74    3    1        -0.1554081580E-02      0.2956959260E-01
          0                 2           2            73    7     1       0.7106236259E-02      74    5    1         0.1553758317E-03      0.2887993170E-02
          0                 3           2            73    7     1      -0.5717633460E-03      71    4    1         0.1510555406E-04      0.2820037494E-03
          0                 4           1            73    7     1       0.4117621905E-04      71    4    1        -0.1943330119E-05      0.2537180678E-04
          0                 5           1            73    7     1      -0.2586426638E-05      74    4    1         0.1781459087E-06      0.1941371752E-05
          0                 6           1            71    7     1       0.1429253901E-06      74    4    1        -0.1286676543E-07      0.1261867468E-06

    ------------------------------------------------
       NWT REQUIRED            6 OUTER ITERATIONS 
       AND A TOTAL OF         10 INNER ITERATIONS.
    ------------------------------------------------

 NO OUTPUT CONTROL FOR STRESS PERIOD   23   TIME STEP   26
 
 WELLS WITH REDUCED PUMPING FOR STRESS PERIOD    23 TIME STEP    26
   LAY   ROW   COL         APPL.Q          ACT.Q        GW-HEAD       CELL-BOT
     1     3    50  -0.580003E+00  -0.461202E+00   0.794017E+01   0.000000E+00
     1     5    55  -0.580003E+00  -0.387690E+00   0.681844E+01   0.000000E+00
 
 
 SOLVING FOR HEAD 
                                                   Max.-Head-Change                         Max.-Flux-Residual
  Residual-Control   Outer-Iter.   Inner-Iter.     Column Row Layer    Maximum-Head-Change  Column Row Layer    Maximum-Flux-Residual          L2-NORM 
          0                 1           3            73    1     1      -0.8778641029E-01      73    3    1        -0.1552822489E-02      0.2955111830E-01
          0                 2           2            73    7     1       0.7797494827E-02      73    3    1         0.1552452040E-03      0.2886594080E-02
          0                 3           2            73    7     1      -0.6254948290E-03      67    4    1         0.1556027907E-04      0.2819510845E-03
          0                 4           1            73    7     1       0.4483673890E-04      70    4    1        -0.1979855352E-05      0.2541915807E-04
          0                 5           1            71    7     1      -0.2792565019E-05      74    4    1         0.1819972901E-06      0.1938196519E-05
          0                 6           1            71    7     1       0.1534422146E-06      74    4    1        -0.1317192755E-07      0.1258466825E-06

    ------------------------------------------------
       NWT REQUIRED            6 OUTER ITERATIONS 
       AND A TOTAL OF         10 INNER ITERATIONS.
    ------------------------------------------------

 NO OUTPUT CONTROL FOR STRESS PERIOD   23   TIME STEP   27
 
 WELLS WITH REDUCED PUMPING FOR STRESS PERIOD    23 TIME STEP    27
   LAY   ROW   COL         APPL.Q          ACT.Q        GW-HEAD       CELL-BOT
     1     3    50  -0.580001E+00  -0.461578E+00   0.794607E+01   0.000000E+00
     1     5    55  -0.580001E+00  -0.387715E+00   0.681880E+01   0.000000E+00
 
 
 SOLVING FOR HEAD 
                                                   Max.-Head-Change                         Max.-Flux-Residual
  Residual-Control   Outer-Iter.   Inner-Iter.     Column Row Layer    Maximum-Head-Change  Column Row Layer    Maximum-Flux-Residual          L2-NORM 
          0                 1           3            73    1     1      -0.9631570731E-01      72    3    1        -0.1548517811E-02      0.2950753571E-01
          0                 2           2            73    7     1       0.8541257309E-02      72    5    1         0.1548096159E-03      0.2883371232E-02
          0                 3           2            74    7     1      -0.6835397619E-03      67    4    1         0.1644276940E-04      0.2817923947E-03
          0                 4           1            74    7     1       0.4875298541E-04      67    4    1        -0.2050279779E-05      0.2545446352E-04
          0                 5           1            71    7     1      -0.3002283469E-05      72    4    1         0.1828153060E-06      0.1930981263E-05
          0                 6           1            69    7     1       0.1634318991E-06      72    4    1        -0.1326223575E-07      0.1251406657E-06

    ------------------------------------------------
       NWT REQUIRED            6 OUTER ITERATIONS 
       AND A TOTAL OF         10 INNER ITERATIONS.
    ------------------------------------------------

 NO OUTPUT CONTROL FOR STRESS PERIOD   23   TIME STEP   28
 
 WELLS WITH REDUCED PUMPING FOR STRESS PERIOD    23 TIME STEP    28
   LAY   ROW   COL         APPL.Q          ACT.Q        GW-HEAD       CELL-BOT
     1     3    50  -0.580001E+00  -0.461853E+00   0.795036E+01   0.000000E+00
     1     5    55  -0.580001E+00  -0.387631E+00   0.681768E+01   0.000000E+00
 
 
 SOLVING FOR HEAD 
                                                   Max.-Head-Change                         Max.-Flux-Residual
  Residual-Control   Outer-Iter.   Inner-Iter.     Column Row Layer    Maximum-Head-Change  Column Row Layer    Maximum-Flux-Residual          L2-NORM 
          0                 1           3            73    1     1      -0.1056190150E+00      73    3    1        -0.1541426852E-02      0.2943634098E-01
          0                 2           2            73    7     1       0.9356522569E-02      73    3    1         0.1541054310E-03      0.2877311417E-02
          0                 3           2            73    7     1      -0.7467040822E-03      66    4    1         0.1613517978E-04      0.2812404398E-03
          0                 4           1            73    1     1       0.5304528204E-04      66    4    1        -0.2017044413E-05      0.2544360982E-04
          0                 5           1            71    7     1      -0.3221249269E-05      72    4    1         0.1851880516E-06      0.1916806175E-05
          0                 6           1            69    7     1       0.1750888897E-06      72    4    1        -0.1346742096E-07      0.1239046342E-06

    ------------------------------------------------
       NWT REQUIRED            6 OUTER ITERATIONS 
       AND A TOTAL OF         10 INNER ITERATIONS.
    ------------------------------------------------

 NO OUTPUT CONTROL FOR STRESS PERIOD   23   TIME STEP   29
 
 WELLS WITH REDUCED PUMPING FOR STRESS PERIOD    23 TIME STEP    29
   LAY   ROW   COL         APPL.Q          ACT.Q        GW-HEAD       CELL-BOT
     1     3    50  -0.579996E+00  -0.462023E+00   0.795308E+01   0.000000E+00
     1     5    55  -0.579996E+00  -0.387457E+00   0.681538E+01   0.000000E+00
 
 
 SOLVING FOR HEAD 
                                                   Max.-Head-Change                         Max.-Flux-Residual
  Residual-Control   Outer-Iter.   Inner-Iter.     Column Row Layer    Maximum-Head-Change  Column Row Layer    Maximum-Flux-Residual          L2-NORM 
          0                 1           3            73    7     1      -0.1156386463E+00      73    3    1        -0.1537998836E-02      0.2933981419E-01
          0                 2           3            73    7     1       0.1022958657E-01      73    3    1         0.1537520366E-03      0.2867926402E-02
          0                 3           2            73    7     1      -0.8144768500E-03      65    4    1         0.1563817655E-04      0.2801976202E-03
          0                 4           1            73    1     1       0.5759339547E-04      71    4    1        -0.1983683495E-05      0.2536673563E-04
          0                 5           1            71    7     1      -0.3446010886E-05      70    4    1         0.1837861401E-06      0.1892330255E-05
          0                 6           1            69    1     1       0.1851198633E-06      70    4    1        -0.1340626987E-07      0.1219125704E-06

    ------------------------------------------------
       NWT REQUIRED            6 OUTER ITERATIONS 
       AND A TOTAL OF         11 INNER ITERATIONS.
    ------------------------------------------------

 NO OUTPUT CONTROL FOR STRESS PERIOD   23   TIME STEP   30
 
 WELLS WITH REDUCED PUMPING FOR STRESS PERIOD    23 TIME STEP    30
   LAY   ROW   COL         APPL.Q          ACT.Q        GW-HEAD       CELL-BOT
     1     3    50  -0.579997E+00  -0.462044E+00   0.795339E+01   0.000000E+00
     1     5    55  -0.579997E+00  -0.387147E+00   0.681120E+01   0.000000E+00
 



 STREAM LISTING     PERIOD     23   STEP       30

 LAYER ROW COL. STREAM  RCH.   FLOW INTO    STREAM     FLOW OUT OF   OVRLND.    DIRECT     STREAM      STREAM      STREAM     STREAM  STREAMBED   FLOW TO   CHNG. UNSAT. 
                SEG.NO.  NO.   STRM. RCH.    LOSS       STRM. RCH.   RUNOFF     PRECIP       ET         HEAD        DEPTH      WIDTH  CONDCTNC.   WAT. TAB.

   1    4    1     1     1    4.2960E+00  1.5291E-03   4.2945E+00  0.000E+00  0.000E+00  0.000E+00  1.41409E+02  1.559E+00  3.678E+00  7.425E-04  1.703E-03 -1.736E-04
   1    4    2     1     2    4.2945E+00  1.5287E-03   4.2929E+00  0.000E+00  0.000E+00  0.000E+00  1.41109E+02  1.559E+00  3.678E+00  7.424E-04  1.697E-03 -1.687E-04
   1    4    3     1     3    4.2929E+00  1.5283E-03   4.2914E+00  0.000E+00  0.000E+00  0.000E+00  1.40809E+02  1.559E+00  3.678E+00  7.423E-04  1.689E-03 -1.603E-04
   1    4    4     1     4    4.2914E+00  1.5279E-03   4.2899E+00  0.000E+00  0.000E+00  0.000E+00  1.40509E+02  1.559E+00  3.677E+00  7.422E-04  1.682E-03 -1.540E-04
   1    4    5     1     5    4.2899E+00  1.5275E-03   4.2884E+00  0.000E+00  0.000E+00  0.000E+00  1.40208E+02  1.558E+00  3.677E+00  7.421E-04  1.677E-03 -1.498E-04
   1    4    6     1     6    4.2884E+00  1.5271E-03   4.2868E+00  0.000E+00  0.000E+00  0.000E+00  1.39908E+02  1.558E+00  3.677E+00  7.420E-04  1.675E-03 -1.477E-04
   1    4    7     1     7    4.2868E+00  1.5267E-03   4.2853E+00  0.000E+00  0.000E+00  0.000E+00  1.39608E+02  1.558E+00  3.676E+00  7.419E-04  1.674E-03 -1.478E-04
   1    4    8     1     8    4.2853E+00  1.5263E-03   4.2838E+00  0.000E+00  0.000E+00  0.000E+00  1.39307E+02  1.557E+00  3.676E+00  7.418E-04  1.676E-03 -1.500E-04
   1    4    9     1     9    4.2838E+00  1.5259E-03   4.2823E+00  0.000E+00  0.000E+00  0.000E+00  1.39007E+02  1.557E+00  3.675E+00  7.418E-04  1.680E-03 -1.544E-04
   1    4   10     1    10    4.2823E+00  1.5255E-03   4.2807E+00  0.000E+00  0.000E+00  0.000E+00  1.38707E+02  1.557E+00  3.675E+00  7.417E-04  1.686E-03 -1.610E-04
   1    4   11     1    11    4.2807E+00  1.5250E-03   4.2792E+00  0.000E+00  0.000E+00  0.000E+00  1.38407E+02  1.557E+00  3.675E+00  7.416E-04  1.694E-03 -1.694E-04
   1    4   12     1    12    4.2792E+00  1.5246E-03   4.2777E+00  0.000E+00  0.000E+00  0.000E+00  1.38106E+02  1.556E+00  3.674E+00  7.415E-04  1.694E-03 -1.689E-04
   1    4   13     1    13    4.2777E+00  1.5242E-03   4.2762E+00  0.000E+00  0.000E+00  0.000E+00  1.37806E+02  1.556E+00  3.674E+00  7.414E-04  1.693E-03 -1.684E-04
   1    4   14     1    14    4.2762E+00  1.5238E-03   4.2746E+00  0.000E+00  0.000E+00  0.000E+00  1.37506E+02  1.556E+00  3.674E+00  7.413E-04  1.692E-03 -1.678E-04
   1    4   15     1    15    4.2746E+00  1.5234E-03   4.2731E+00  0.000E+00  0.000E+00  0.000E+00  1.37205E+02  1.555E+00  3.673E+00  7.412E-04  1.691E-03 -1.673E-04
   1    4   16     1    16    4.2731E+00  1.5230E-03   4.2716E+00  0.000E+00  0.000E+00  0.000E+00  1.36905E+02  1.555E+00  3.673E+00  7.411E-04  1.690E-03 -1.667E-04
   1    4   17     1    17    4.2716E+00  1.5226E-03   4.2701E+00  0.000E+00  0.000E+00  0.000E+00  1.36605E+02  1.555E+00  3.673E+00  7.410E-04  1.689E-03 -1.661E-04
   1    4   18     1    18    4.2701E+00  1.5222E-03   4.2685E+00  0.000E+00  0.000E+00  0.000E+00  1.36305E+02  1.555E+00  3.672E+00  7.409E-04  1.688E-03 -1.655E-04
   1    4   19     1    19    4.2685E+00  1.5218E-03   4.2670E+00  0.000E+00  0.000E+00  0.000E+00  1.36004E+02  1.554E+00  3.672E+00  7.408E-04  1.687E-03 -1.649E-04
   1    4   20     1    20    4.2670E+00  1.5214E-03   4.2655E+00  0.000E+00  0.000E+00  0.000E+00  1.35704E+02  1.554E+00  3.672E+00  7.407E-04  1.686E-03 -1.643E-04
   1    4   21     1    21    4.2655E+00  1.5210E-03   4.2640E+00  0.000E+00  0.000E+00  0.000E+00  1.35404E+02  1.554E+00  3.671E+00  7.406E-04  1.685E-03 -1.637E-04
   1    4   22     1    22    4.2640E+00  1.5206E-03   4.2625E+00  0.000E+00  0.000E+00  0.000E+00  1.35103E+02  1.553E+00  3.671E+00  7.405E-04  1.684E-03 -1.631E-04
   1    4   23     1    23    4.2625E+00  1.5202E-03   4.2609E+00  0.000E+00  0.000E+00  0.000E+00  1.34803E+02  1.553E+00  3.671E+00  7.404E-04  1.683E-03 -1.625E-04
   1    4   24     1    24    4.2609E+00  1.5198E-03   4.2594E+00  0.000E+00  0.000E+00  0.000E+00  1.34503E+02  1.553E+00  3.670E+00  7.403E-04  1.682E-03 -1.620E-04
   1    4   25     1    25    4.2594E+00  1.5194E-03   4.2579E+00  0.000E+00  0.000E+00  0.000E+00  1.34202E+02  1.553E+00  3.670E+00  7.402E-04  1.681E-03 -1.615E-04
   1    4   26     1    26    4.2579E+00  1.5190E-03   4.2564E+00  0.000E+00  0.000E+00  0.000E+00  1.33902E+02  1.552E+00  3.670E+00  7.402E-04  1.680E-03 -1.610E-04
   1    4   27     1    27    4.2564E+00  1.5186E-03   4.2549E+00  0.000E+00  0.000E+00  0.000E+00  1.33602E+02  1.552E+00  3.669E+00  7.401E-04  1.679E-03 -1.605E-04
   1    4   28     1    28    4.2549E+00  1.5181E-03   4.2533E+00  0.000E+00  0.000E+00  0.000E+00  1.33302E+02  1.552E+00  3.669E+00  7.400E-04  1.678E-03 -1.601E-04
   1    4   29     1    29    4.2533E+00  1.5177E-03   4.2518E+00  0.000E+00  0.000E+00  0.000E+00  1.33001E+02  1.551E+00  3.669E+00  7.399E-04  1.678E-03 -1.598E-04
   1    4   30     1    30    4.2518E+00  1.5173E-03   4.2503E+00  0.000E+00  0.000E+00  0.000E+00  1.32701E+02  1.551E+00  3.668E+00  7.398E-04  1.677E-03 -1.595E-04
   1    4   31     1    31    4.2503E+00  1.5169E-03   4.2488E+00  0.000E+00  0.000E+00  0.000E+00  1.32401E+02  1.551E+00  3.668E+00  7.397E-04  1.676E-03 -1.593E-04
   1    4   32     1    32    4.2488E+00  1.5165E-03   4.2473E+00  0.000E+00  0.000E+00  0.000E+00  1.32100E+02  1.550E+00  3.668E+00  7.396E-04  1.676E-03 -1.593E-04
   1    4   33     1    33    4.2473E+00  1.5161E-03   4.2458E+00  0.000E+00  0.000E+00  0.000E+00  1.31800E+02  1.550E+00  3.667E+00  7.395E-04  1.675E-03 -1.593E-04
   1    4   34     1    34    4.2458E+00  1.5157E-03   4.2442E+00  0.000E+00  0.000E+00  0.000E+00  1.31500E+02  1.550E+00  3.667E+00  7.394E-04  1.675E-03 -1.595E-04
   1    4   35     1    35    4.2442E+00  1.5153E-03   4.2427E+00  0.000E+00  0.000E+00  0.000E+00  1.31200E+02  1.550E+00  3.667E+00  7.393E-04  1.694E-03 -1.783E-04
   1    4   36     1    36    4.2427E+00  1.5149E-03   4.2412E+00  0.000E+00  0.000E+00  0.000E+00  1.30899E+02  1.549E+00  3.666E+00  7.392E-04  1.752E-03 -2.372E-04
   1    4   37     1    37    4.2412E+00  1.5145E-03   4.2397E+00  0.000E+00  0.000E+00  0.000E+00  1.30599E+02  1.549E+00  3.666E+00  7.391E-04  1.753E-03 -2.381E-04
   1    4   38     1    38    4.2397E+00  1.5141E-03   4.2382E+00  0.000E+00  0.000E+00  0.000E+00  1.30299E+02  1.549E+00  3.665E+00  7.390E-04  1.783E-03 -2.688E-04
   1    4   39     1    39    4.2382E+00  1.5137E-03   4.2367E+00  0.000E+00  0.000E+00  0.000E+00  1.29998E+02  1.548E+00  3.665E+00  7.389E-04  1.897E-03 -3.834E-04
   1    4   40     1    40    4.2367E+00  1.5133E-03   4.2352E+00  0.000E+00  0.000E+00  0.000E+00  1.29698E+02  1.548E+00  3.665E+00  7.388E-04  2.039E-03 -5.259E-04
   1    4   41     1    41    4.2352E+00  1.5129E-03   4.2336E+00  0.000E+00  0.000E+00  0.000E+00  1.29398E+02  1.548E+00  3.664E+00  7.387E-04  2.043E-03 -5.304E-04
   1    4   42     1    42    4.2336E+00  1.5125E-03   4.2321E+00  0.000E+00  0.000E+00  0.000E+00  1.29098E+02  1.548E+00  3.664E+00  7.387E-04  2.048E-03 -5.356E-04
   1    4   43     1    43    4.2321E+00  1.5121E-03   4.2306E+00  0.000E+00  0.000E+00  0.000E+00  1.28797E+02  1.547E+00  3.664E+00  7.386E-04  2.054E-03 -5.417E-04
   1    4   44     1    44    4.2306E+00  1.5117E-03   4.2291E+00  0.000E+00  0.000E+00  0.000E+00  1.28497E+02  1.547E+00  3.663E+00  7.385E-04  2.061E-03 -5.489E-04
   1    4   45     1    45    4.2291E+00  1.5113E-03   4.2276E+00  0.000E+00  0.000E+00  0.000E+00  1.28197E+02  1.547E+00  3.663E+00  7.384E-04  2.159E-03 -6.480E-04
   1    4   46     1    46    4.2276E+00  1.5109E-03   4.2261E+00  0.000E+00  0.000E+00  0.000E+00  1.27896E+02  1.546E+00  3.663E+00  7.383E-04  2.169E-03 -6.579E-04
   1    4   47     1    47    4.2261E+00  1.5105E-03   4.2246E+00  0.000E+00  0.000E+00  0.000E+00  1.27596E+02  1.546E+00  3.662E+00  7.382E-04  2.218E-03 -7.071E-04
   1    4   48     1    48    4.2246E+00  1.5101E-03   4.2231E+00  0.000E+00  0.000E+00  0.000E+00  1.27296E+02  1.546E+00  3.662E+00  7.381E-04  2.339E-03 -8.293E-04
   1    4   49     1    49    4.2231E+00  1.5097E-03   4.2216E+00  0.000E+00  0.000E+00  0.000E+00  1.26996E+02  1.546E+00  3.662E+00  7.380E-04  2.651E-03 -1.142E-03
   1    4   50     1    50    4.2216E+00  1.5093E-03   4.2200E+00  0.000E+00  0.000E+00  0.000E+00  1.26695E+02  1.545E+00  3.661E+00  7.379E-04  2.852E-03 -1.343E-03
   1    4   51     1    51    4.2200E+00  1.5089E-03   4.2185E+00  0.000E+00  0.000E+00  0.000E+00  1.26395E+02  1.545E+00  3.661E+00  7.378E-04  2.874E-03 -1.365E-03
   1    4   52     1    52    4.2185E+00  1.5085E-03   4.2170E+00  0.000E+00  0.000E+00  0.000E+00  1.26095E+02  1.545E+00  3.661E+00  7.377E-04  2.883E-03 -1.374E-03
   1    4   53     1    53    4.2170E+00  1.5081E-03   4.2155E+00  0.000E+00  0.000E+00  0.000E+00  1.25794E+02  1.544E+00  3.660E+00  7.376E-04  2.878E-03 -1.370E-03
   1    4   54     1    54    4.2155E+00  1.5077E-03   4.2140E+00  0.000E+00  0.000E+00  0.000E+00  1.25494E+02  1.544E+00  3.660E+00  7.375E-04  2.862E-03 -1.355E-03
   1    4   55     1    55    4.2140E+00  1.5072E-03   4.2125E+00  0.000E+00  0.000E+00  0.000E+00  1.25194E+02  1.544E+00  3.660E+00  7.374E-04  2.835E-03 -1.328E-03
   1    4   56     1    56    4.2125E+00  1.5068E-03   4.2110E+00  0.000E+00  0.000E+00  0.000E+00  1.24894E+02  1.544E+00  3.659E+00  7.373E-04  2.690E-03 -1.183E-03
   1    4   57     1    57    4.2110E+00  1.5064E-03   4.2095E+00  0.000E+00  0.000E+00  0.000E+00  1.24593E+02  1.543E+00  3.659E+00  7.373E-04  2.327E-03 -8.208E-04
   1    4   58     1    58    4.2095E+00  1.5060E-03   4.2080E+00  0.000E+00  0.000E+00  0.000E+00  1.24293E+02  1.543E+00  3.659E+00  7.372E-04  2.196E-03 -6.901E-04
   1    4   59     1    59    4.2080E+00  1.5056E-03   4.2065E+00  0.000E+00  0.000E+00  0.000E+00  1.23993E+02  1.543E+00  3.658E+00  7.371E-04  2.134E-03 -6.286E-04
   1    4   60     1    60    4.2065E+00  1.5052E-03   4.2050E+00  0.000E+00  0.000E+00  0.000E+00  1.23692E+02  1.542E+00  3.658E+00  7.370E-04  2.119E-03 -6.137E-04
   1    4   61     1    61    4.2050E+00  1.5048E-03   4.2035E+00  0.000E+00  0.000E+00  0.000E+00  1.23392E+02  1.542E+00  3.658E+00  7.369E-04  2.108E-03 -6.031E-04
   1    4   62     1    62    4.2035E+00  1.5044E-03   4.2020E+00  0.000E+00  0.000E+00  0.000E+00  1.23092E+02  1.542E+00  3.657E+00  7.368E-04  2.012E-03 -5.080E-04
   1    4   63     1    63    4.2020E+00  1.5040E-03   4.2005E+00  0.000E+00  0.000E+00  0.000E+00  1.22792E+02  1.542E+00  3.657E+00  7.367E-04  2.005E-03 -5.012E-04
   1    4   64     1    64    4.2005E+00  1.5036E-03   4.1990E+00  0.000E+00  0.000E+00  0.000E+00  1.22491E+02  1.541E+00  3.657E+00  7.366E-04  1.999E-03 -4.951E-04
   1    4   65     1    65    4.1990E+00  1.5032E-03   4.1975E+00  0.000E+00  0.000E+00  0.000E+00  1.22191E+02  1.541E+00  3.656E+00  7.365E-04  1.993E-03 -4.897E-04
   1    4   66     1    66    4.1975E+00  1.5028E-03   4.1959E+00  0.000E+00  0.000E+00  0.000E+00  1.21891E+02  1.541E+00  3.656E+00  7.364E-04  1.870E-03 -3.671E-04
   1    4   67     1    67    4.1959E+00  1.5024E-03   4.1944E+00  0.000E+00  0.000E+00  0.000E+00  1.21590E+02  1.540E+00  3.656E+00  7.363E-04  1.760E-03 -2.578E-04
   1    4   68     1    68    4.1944E+00  1.5020E-03   4.1929E+00  0.000E+00  0.000E+00  0.000E+00  1.21290E+02  1.540E+00  3.655E+00  7.362E-04  1.705E-03 -2.033E-04
   1    4   69     1    69    4.1929E+00  1.5016E-03   4.1914E+00  0.000E+00  0.000E+00  0.000E+00  1.20990E+02  1.540E+00  3.655E+00  7.361E-04  1.703E-03 -2.019E-04
   1    4   70     1    70    4.1914E+00  1.5012E-03   4.1899E+00  0.000E+00  0.000E+00  0.000E+00  1.20690E+02  1.540E+00  3.655E+00  7.360E-04  1.702E-03 -2.006E-04
   1    4   71     1    71    4.1899E+00  1.5008E-03   4.1884E+00  0.000E+00  0.000E+00  0.000E+00  1.20389E+02  1.539E+00  3.654E+00  7.359E-04  1.700E-03 -1.995E-04
   1    4   72     1    72    4.1884E+00  1.5004E-03   4.1869E+00  0.000E+00  0.000E+00  0.000E+00  1.20089E+02  1.539E+00  3.654E+00  7.359E-04  1.645E-03 -1.441E-04
   1    4   73     1    73    4.1869E+00  1.5000E-03   4.1854E+00  0.000E+00  0.000E+00  0.000E+00  1.19789E+02  1.539E+00  3.653E+00  7.358E-04  1.630E-03 -1.298E-04
   1    4   74     1    74    4.1854E+00  1.4996E-03   4.1839E+00  0.000E+00  0.000E+00  0.000E+00  1.19488E+02  1.538E+00  3.653E+00  7.357E-04  1.629E-03 -1.299E-04
   1    4   75     1    75    4.1839E+00  1.4992E-03   4.1824E+00  0.000E+00  0.000E+00  0.000E+00  1.19188E+02  1.538E+00  3.653E+00  7.356E-04  1.629E-03 -1.301E-04
   1    4   76     1    76    4.1824E+00  1.4988E-03   4.1809E+00  0.000E+00  0.000E+00  0.000E+00  1.18888E+02  1.538E+00  3.652E+00  7.355E-04  1.629E-03 -1.306E-04
   1    4   77     1    77    4.1809E+00  1.4984E-03   4.1794E+00  0.000E+00  0.000E+00  0.000E+00  1.18588E+02  1.538E+00  3.652E+00  7.354E-04  1.630E-03 -1.313E-04
   1    4   78     1    78    4.1794E+00  1.4980E-03   4.1779E+00  0.000E+00  0.000E+00  0.000E+00  1.18287E+02  1.537E+00  3.652E+00  7.353E-04  1.630E-03 -1.321E-04
   1    4   79     1    79    4.1779E+00  1.4976E-03   4.1764E+00  0.000E+00  0.000E+00  0.000E+00  1.17987E+02  1.537E+00  3.651E+00  7.352E-04  1.631E-03 -1.332E-04
   1    4   80     1    80    4.1764E+00  1.4972E-03   4.1750E+00  0.000E+00  0.000E+00  0.000E+00  1.17687E+02  1.537E+00  3.651E+00  7.351E-04  1.632E-03 -1.345E-04
   1    4   81     1    81    4.1750E+00  1.4968E-03   4.1735E+00  0.000E+00  0.000E+00  0.000E+00  1.17386E+02  1.536E+00  3.651E+00  7.350E-04  1.633E-03 -1.361E-04
   1    4   82     1    82    4.1735E+00  1.4964E-03   4.1720E+00  0.000E+00  0.000E+00  0.000E+00  1.17086E+02  1.536E+00  3.650E+00  7.349E-04  1.634E-03 -1.379E-04
   1    4   83     1    83    4.1720E+00  1.4960E-03   4.1705E+00  0.000E+00  0.000E+00  0.000E+00  1.16786E+02  1.536E+00  3.650E+00  7.348E-04  1.636E-03 -1.400E-04
   1    4   84     1    84    4.1705E+00  1.4956E-03   4.1690E+00  0.000E+00  0.000E+00  0.000E+00  1.16486E+02  1.536E+00  3.650E+00  7.347E-04  1.638E-03 -1.424E-04
   1    4   85     1    85    4.1690E+00  1.4952E-03   4.1675E+00  0.000E+00  0.000E+00  0.000E+00  1.16185E+02  1.535E+00  3.649E+00  7.346E-04  1.640E-03 -1.452E-04
   1    4   86     1    86    4.1675E+00  1.4948E-03   4.1660E+00  0.000E+00  0.000E+00  0.000E+00  1.15885E+02  1.535E+00  3.649E+00  7.345E-04  1.643E-03 -1.484E-04
   1    4   87     1    87    4.1660E+00  1.4944E-03   4.1645E+00  0.000E+00  0.000E+00  0.000E+00  1.15585E+02  1.535E+00  3.649E+00  7.345E-04  1.646E-03 -1.519E-04
   1    4   88     1    88    4.1645E+00  1.4940E-03   4.1630E+00  0.000E+00  0.000E+00  0.000E+00  1.15284E+02  1.534E+00  3.648E+00  7.344E-04  1.650E-03 -1.559E-04
   1    4   89     1    89    4.1630E+00  1.4936E-03   4.1615E+00  0.000E+00  0.000E+00  0.000E+00  1.14984E+02  1.534E+00  3.648E+00  7.343E-04  1.654E-03 -1.604E-04
   1    4   90     1    90    4.1615E+00  1.4932E-03   4.1600E+00  0.000E+00  0.000E+00  0.000E+00  1.14684E+02  1.534E+00  3.648E+00  7.342E-04  1.659E-03 -1.654E-04
   1    4   91     1    91    4.1600E+00  1.4928E-03   4.1585E+00  0.000E+00  0.000E+00  0.000E+00  1.14384E+02  1.534E+00  3.647E+00  7.341E-04  1.664E-03 -1.709E-04
   1    4   92     1    92    4.1585E+00  1.4924E-03   4.1570E+00  0.000E+00  0.000E+00  0.000E+00  1.14083E+02  1.533E+00  3.647E+00  7.340E-04  1.669E-03 -1.770E-04
   1    4   93     1    93    4.1570E+00  1.4920E-03   4.1555E+00  0.000E+00  0.000E+00  0.000E+00  1.13783E+02  1.533E+00  3.647E+00  7.339E-04  1.676E-03 -1.836E-04
   1    4   94     1    94    4.1555E+00  1.4916E-03   4.1540E+00  0.000E+00  0.000E+00  0.000E+00  1.13483E+02  1.533E+00  3.646E+00  7.338E-04  1.682E-03 -1.908E-04
   1    4   95     1    95    4.1540E+00  1.4912E-03   4.1525E+00  0.000E+00  0.000E+00  0.000E+00  1.13182E+02  1.532E+00  3.646E+00  7.337E-04  1.690E-03 -1.986E-04
   1    4   96     1    96    4.1525E+00  1.4908E-03   4.1511E+00  0.000E+00  0.000E+00  0.000E+00  1.12882E+02  1.532E+00  3.646E+00  7.336E-04  1.698E-03 -2.069E-04
   1    4   97     1    97    4.1511E+00  1.4904E-03   4.1496E+00  0.000E+00  0.000E+00  0.000E+00  1.12582E+02  1.532E+00  3.645E+00  7.335E-04  1.706E-03 -2.157E-04
   1    4   98     1    98    4.1496E+00  1.4900E-03   4.1481E+00  0.000E+00  0.000E+00  0.000E+00  1.12282E+02  1.532E+00  3.645E+00  7.334E-04  1.715E-03 -2.249E-04
   1    4   99     1    99    4.1481E+00  1.4896E-03   4.1466E+00  0.000E+00  0.000E+00  0.000E+00  1.11981E+02  1.531E+00  3.645E+00  7.333E-04  1.724E-03 -2.344E-04
   1    4  100     1   100    4.1466E+00  1.4892E-03   4.1451E+00  0.000E+00  0.000E+00  0.000E+00  1.11681E+02  1.531E+00  3.644E+00  7.332E-04  1.733E-03 -2.441E-04



1
  VOLUMETRIC BUDGET FOR UNSATURATED ZONE BENEATH STREAMS AT END OF TIME STEP    30 STRESS PERIOD  23
  ------------------------------------------------------------------------------------------------

    CUMULATIVE VOLUMES             L**3    RATES FOR THIS TIME STEP         L**3/T
    ------------------                     ------------------------


          STREAM LOSS =     27053892.0000            STREAM LOSS =            0.1509
    CHANGE IN STORAGE =      1462306.8750      CHANGE IN STORAGE =       -3.4286E-02
       RECHARGE TO GW =     25598528.0000         RECHARGE TO GW =            0.1852

             TOTAL IN =     27053892.0000               TOTAL IN =            0.1852

            TOTAL OUT =     27060834.0000              TOTAL OUT =            0.1852

             IN - OUT =        -6942.0000               IN - OUT =        3.2783E-07

  PERCENT DISCREPANCY =           -0.01      PERCENT DISCREPANCY =             0.00



1
  VOLUMETRIC BUDGET FOR ENTIRE MODEL AT END OF TIME STEP   30, STRESS PERIOD  23
  ------------------------------------------------------------------------------

     CUMULATIVE VOLUMES      L**3       RATES FOR THIS TIME STEP      L**3/T
     ------------------                 ------------------------

           IN:                                      IN:
           ---                                      ---
             STORAGE     =    86063536.0000               STORAGE     =           0.7149
       CONSTANT HEAD     =           0.0000         CONSTANT HEAD     =           0.0000
               WELLS     =           0.0000                 WELLS     =           0.0000
     HEAD DEP BOUNDS     =           0.0000       HEAD DEP BOUNDS     =           0.0000
      STREAM LEAKAGE     =    25598394.0000        STREAM LEAKAGE     =           0.1852

                TOTAL IN =   111661928.0000                  TOTAL IN =           0.9001

          OUT:                                     OUT:
          ----                                     ----
             STORAGE     =     3093122.2500               STORAGE     =       7.6968E-03
       CONSTANT HEAD     =           0.0000         CONSTANT HEAD     =           0.0000
               WELLS     =    92320352.0000                 WELLS     =           0.8492
     HEAD DEP BOUNDS     =    16248592.0000       HEAD DEP BOUNDS     =       4.3173E-02
      STREAM LEAKAGE     =           0.0000        STREAM LEAKAGE     =           0.0000

               TOTAL OUT =   111662064.0000                 TOTAL OUT =           0.9001

                IN - OUT =        -136.0000                  IN - OUT =      -5.9605E-08

     PERCENT DISCREPANCY =          -0.00         PERCENT DISCREPANCY =          -0.00






         TIME SUMMARY AT END OF TIME STEP   30 IN STRESS PERIOD   23
                    SECONDS     MINUTES      HOURS       DAYS        YEARS
                    -----------------------------------------------------------
   TIME STEP LENGTH 2.49961E+05  4166.0      69.434      2.8931     7.92080E-03
 STRESS PERIOD TIME 2.59200E+06  43200.      720.00      30.000     8.21355E-02
         TOTAL TIME 5.96160E+07 9.93599E+05  16560.      690.00      1.8891    
1
1
                            STRESS PERIOD NO.   24, LENGTH =   2592000.    
                            -----------------------------------------------

                              NUMBER OF TIME STEPS =    30

                               MULTIPLIER FOR DELT =     1.100

                            INITIAL TIME STEP SIZE =   15757.40    

 REUSING NON-PARAMETER WELLS FROM LAST STRESS PERIOD

      1 WELL 

 REUSING NON-PARAMETER GHB CELLS FROM LAST STRESS PERIOD

      7 GHB CELLS



 CLASSIFICATION & COUNT OF STREAM SEGMENTS BASED ON SOURCE OF INFLOW:

                HEADWATER     DIVERSION     RECEIVES TRIBUTARY FLOW
                ---------     ---------     -----------------------
                     1              0               0



                    INPUT DATA FOR EACH STREAM SEGMENT
 ---------------------------------------------------------------------------------------------

 SEGMENT    SEG.     INFLOW   OVERLAND   STREAM    STREAM   ICALC  OUTFLOW  DIVERSION PRIORITY
    NO.    LENGTH     RATE     RUNOFF      ET       PPT.    METH.  TO SEG.  FROM SEG.    NO.

      1  2.000E+04 1.163E+00 0.000E+00 0.000E+00 0.000E+00    2        0        0        0


         STREAMBED PROPERTIES AND STREAM DIMENSIONS

 SEGMENT     BED HYD. COND.      BED THICKNESS     ELEV.-TOP OF BED     WIDTH OF STREAM     DEPTH OF STREAM    STREAM ROUGHNESS
    No.     UPPER     LOWER     UPPER     LOWER     UPPER     LOWER     UPPER     LOWER     UPPER     LOWER   CHANNEL      BANK

     1  3.500E-07 3.500E-07                                                                                 3.000E-02 4.000E-02

  EIGHT POINT CROSS-SECTION DATA FOR SEGMENTS WITH ICALC = 2
    X VALUES X VALUES START FROM LEFT SIDE LOOKING DOWNSTREAM

     SEGMENT NO.        X1        X2        X3        X4        X5        X6        X7        X8
            1      0.000E+00 2.000E+00 4.000E+00 6.000E+00 8.000E+00 1.000E+01 1.200E+01 1.400E+01

    Z VALUES ARE RELATIVE TO STREAMBED ELEVATION

     SEGMENT NO.          Z1        Z2        Z3        Z4        Z5        Z6        Z7        Z8
            1      6.000E+00 4.500E+00 3.500E+00 0.000E+00 3.000E-01 3.500E+00 4.500E+00 6.000E+00



 
 SOLVING FOR HEAD 
                                                   Max.-Head-Change                         Max.-Flux-Residual
  Residual-Control   Outer-Iter.   Inner-Iter.     Column Row Layer    Maximum-Head-Change  Column Row Layer    Maximum-Flux-Residual          L2-NORM 
          0                 1           2            50    3     1       0.7554326418E-01      50    3    1         0.2387319500E-01      0.4266530018E-01
          0                 2           2            50    3     1      -0.7285975838E-02      50    3    1        -0.2357617408E-02      0.4209429109E-02
          0                 3           2            50    3     1       0.6519587145E-03      50    3    1         0.2125222879E-03      0.3842903332E-03
          0                 4           1            50    3     1      -0.5172441694E-04      50    3    1        -0.1701970186E-04      0.3108788704E-04
          0                 5           1            50    3     1       0.3603460816E-05      50    3    1         0.1196496768E-05      0.2195297138E-05
          0                 6           1            50    3     1      -0.2163735017E-06      50    3    1        -0.7250220346E-07      0.1332275688E-06

    ------------------------------------------------
       NWT REQUIRED            6 OUTER ITERATIONS 
       AND A TOTAL OF          9 INNER ITERATIONS.
    ------------------------------------------------

 NO OUTPUT CONTROL FOR STRESS PERIOD   24   TIME STEP    1
 
 WELLS WITH REDUCED PUMPING FOR STRESS PERIOD    24 TIME STEP     1
   LAY   ROW   COL         APPL.Q          ACT.Q        GW-HEAD       CELL-BOT
     1     3    50  -0.550035E+00  -0.442325E+00   0.802225E+01   0.000000E+00
     1     5    55  -0.550035E+00  -0.371133E+00   0.686788E+01   0.000000E+00
 
 
 SOLVING FOR HEAD 
                                                   Max.-Head-Change                         Max.-Flux-Residual
  Residual-Control   Outer-Iter.   Inner-Iter.     Column Row Layer    Maximum-Head-Change  Column Row Layer    Maximum-Flux-Residual          L2-NORM 
          0                 1           2            50    3     1       0.5478553186E-01      50    3    1         0.1578953734E-01      0.3571883147E-01
          0                 2           2            50    3     1      -0.5202761997E-02      50    3    1        -0.1563836401E-02      0.3514786541E-02
          0                 3           2            50    3     1       0.4658221744E-03      50    3    1         0.1409342265E-03      0.3232548104E-03
          0                 4           1            50    3     1      -0.3695732613E-04      50    3    1        -0.1128693805E-04      0.2631625070E-04
          0                 5           1            50    3     1       0.2574645975E-05      50    3    1         0.7934724074E-06      0.1864658217E-05
          0                 6           1            50    3     1      -0.1545973908E-06      50    3    1        -0.4808067039E-07      0.1133217176E-06

    ------------------------------------------------
       NWT REQUIRED            6 OUTER ITERATIONS 
       AND A TOTAL OF          9 INNER ITERATIONS.
    ------------------------------------------------

 NO OUTPUT CONTROL FOR STRESS PERIOD   24   TIME STEP    2
 
 WELLS WITH REDUCED PUMPING FOR STRESS PERIOD    24 TIME STEP     2
   LAY   ROW   COL         APPL.Q          ACT.Q        GW-HEAD       CELL-BOT
     1     3    50  -0.549964E+00  -0.445248E+00   0.807227E+01   0.000000E+00
     1     5    55  -0.549964E+00  -0.373905E+00   0.690817E+01   0.000000E+00
 
 
 SOLVING FOR HEAD 
                                                   Max.-Head-Change                         Max.-Flux-Residual
  Residual-Control   Outer-Iter.   Inner-Iter.     Column Row Layer    Maximum-Head-Change  Column Row Layer    Maximum-Flux-Residual          L2-NORM 
          0                 1           2            50    3     1       0.3944219189E-01      50    3    1         0.1032236747E-01      0.3221796722E-01
          0                 2           2            50    3     1      -0.3682919923E-02      50    3    1        -0.1024592829E-02      0.3159647735E-02
          0                 3           2            50    3     1       0.3295013746E-03      50    3    1         0.9230898515E-04      0.2926466713E-03
          0                 4           1            50    3     1      -0.2614560541E-04      50    3    1        -0.7393032497E-05      0.2397868610E-04
          0                 5           1            50    3     1       0.1821376689E-05      50    3    1         0.5197225358E-06      0.1705626085E-05
          0                 6           1            50    3     1      -0.1093665109E-06      50    3    1        -0.3149260497E-07      0.1038467247E-06

    ------------------------------------------------
       NWT REQUIRED            6 OUTER ITERATIONS 
       AND A TOTAL OF          9 INNER ITERATIONS.
    ------------------------------------------------

 NO OUTPUT CONTROL FOR STRESS PERIOD   24   TIME STEP    3
 
 WELLS WITH REDUCED PUMPING FOR STRESS PERIOD    24 TIME STEP     3
   LAY   ROW   COL         APPL.Q          ACT.Q        GW-HEAD       CELL-BOT
     1     3    50  -0.550044E+00  -0.447445E+00   0.810833E+01   0.000000E+00
     1     5    55  -0.550044E+00  -0.375929E+00   0.693637E+01   0.000000E+00
 
 
 SOLVING FOR HEAD 
                                                   Max.-Head-Change                         Max.-Flux-Residual
  Residual-Control   Outer-Iter.   Inner-Iter.     Column Row Layer    Maximum-Head-Change  Column Row Layer    Maximum-Flux-Residual          L2-NORM 
          0                 1           2            50    3     1       0.2901179005E-01      50    3    1         0.6869230282E-02      0.3065089509E-01
          0                 2           2            50    3     1      -0.2663032644E-02      50    3    1        -0.6828266565E-03      0.3000662087E-02
          0                 3           2            50    3     1       0.2377320834E-03      50    3    1         0.6149441764E-04      0.2794111384E-03
          0                 4           1            50    3     1      -0.1886558742E-04      50    3    1        -0.4925239525E-05      0.2302227571E-04
          0                 5           1            50    3     1       0.1314193934E-05      50    3    1         0.3462341461E-06      0.1643803115E-05
          0                 6           1            50    3     1      -0.7891179685E-07      50    3    1        -0.2097991447E-07      0.1002854954E-06

    ------------------------------------------------
       NWT REQUIRED            6 OUTER ITERATIONS 
       AND A TOTAL OF          9 INNER ITERATIONS.
    ------------------------------------------------

 NO OUTPUT CONTROL FOR STRESS PERIOD   24   TIME STEP    4
 
 WELLS WITH REDUCED PUMPING FOR STRESS PERIOD    24 TIME STEP     4
   LAY   ROW   COL         APPL.Q          ACT.Q        GW-HEAD       CELL-BOT
     1     3    50  -0.549971E+00  -0.448946E+00   0.813490E+01   0.000000E+00
     1     5    55  -0.549971E+00  -0.377274E+00   0.695642E+01   0.000000E+00
 
 
 SOLVING FOR HEAD 
                                                   Max.-Head-Change                         Max.-Flux-Residual
  Residual-Control   Outer-Iter.   Inner-Iter.     Column Row Layer    Maximum-Head-Change  Column Row Layer    Maximum-Flux-Residual          L2-NORM 
          0                 1           2            50    3     1       0.2119881850E-01      50    3    1         0.4506054424E-02      0.2990003972E-01
          0                 2           2            50    3     1      -0.1910766791E-02      50    3    1        -0.4483955682E-03      0.2925138232E-02
          0                 3           2            50    3     1       0.1699434802E-03      50    3    1         0.4037548002E-04      0.2734958197E-03
          0                 4           1            50    3     1      -0.1348918423E-04      50    3    1        -0.3233939070E-05      0.2264783648E-04
          0                 5           1            50    3     1       0.9396467476E-06      50    3    1         0.2273356148E-06      0.1623196426E-05

    ------------------------------------------------
       NWT REQUIRED            5 OUTER ITERATIONS 
       AND A TOTAL OF          8 INNER ITERATIONS.
    ------------------------------------------------

 NO OUTPUT CONTROL FOR STRESS PERIOD   24   TIME STEP    5
 
 WELLS WITH REDUCED PUMPING FOR STRESS PERIOD    24 TIME STEP     5
   LAY   ROW   COL         APPL.Q          ACT.Q        GW-HEAD       CELL-BOT
     1     3    50  -0.550038E+00  -0.450137E+00   0.815435E+01   0.000000E+00
     1     5    55  -0.550038E+00  -0.378294E+00   0.697044E+01   0.000000E+00
 
 
 SOLVING FOR HEAD 
                                                   Max.-Head-Change                         Max.-Flux-Residual
  Residual-Control   Outer-Iter.   Inner-Iter.     Column Row Layer    Maximum-Head-Change  Column Row Layer    Maximum-Flux-Residual          L2-NORM 
          0                 1           2            50    3     1       0.1616546545E-01      50    3    1         0.3091140347E-02      0.2956893459E-01
          0                 2           2            50    3     1      -0.1437594498E-02      50    3    1        -0.3077923174E-03      0.2893148102E-02
          0                 3           2            50    3     1       0.1272686637E-03      50    3    1         0.2771274744E-04      0.2713644774E-03
          0                 4           1            50    3     1      -0.1010163827E-04      50    3    1        -0.2219703398E-05      0.2257249879E-04
          0                 5           1            50    3     1       0.7036535739E-06      50    3    1         0.1560346981E-06      0.1623898313E-05

    ------------------------------------------------
       NWT REQUIRED            5 OUTER ITERATIONS 
       AND A TOTAL OF          8 INNER ITERATIONS.
    ------------------------------------------------

 NO OUTPUT CONTROL FOR STRESS PERIOD   24   TIME STEP    6
 
 WELLS WITH REDUCED PUMPING FOR STRESS PERIOD    24 TIME STEP     6
   LAY   ROW   COL         APPL.Q          ACT.Q        GW-HEAD       CELL-BOT
     1     3    50  -0.549968E+00  -0.450945E+00   0.816919E+01   0.000000E+00
     1     5    55  -0.549968E+00  -0.378955E+00   0.698064E+01   0.000000E+00
 
 
 SOLVING FOR HEAD 
                                                   Max.-Head-Change                         Max.-Flux-Residual
  Residual-Control   Outer-Iter.   Inner-Iter.     Column Row Layer    Maximum-Head-Change  Column Row Layer    Maximum-Flux-Residual          L2-NORM 
          0                 1           2            72    1     1      -0.1297545106E-01      50    3    1         0.2067245419E-02      0.2938573987E-01
          0                 2           2            72    1     1       0.1244630576E-02      50    3    1        -0.2059307867E-03      0.2875586327E-02
          0                 3           2            72    1     1      -0.1088024586E-03      50    3    1         0.1854033362E-04      0.2704773013E-03
          0                 4           1            72    1     1       0.8539137717E-05      50    3    1        -0.1485028746E-05      0.2259859717E-04
          0                 5           1            71    1     1      -0.5916216143E-06      50    3    1         0.1043879613E-06      0.1632194106E-05

    ------------------------------------------------
       NWT REQUIRED            5 OUTER ITERATIONS 
       AND A TOTAL OF          8 INNER ITERATIONS.
    ------------------------------------------------

 NO OUTPUT CONTROL FOR STRESS PERIOD   24   TIME STEP    7
 
 WELLS WITH REDUCED PUMPING FOR STRESS PERIOD    24 TIME STEP     7
   LAY   ROW   COL         APPL.Q          ACT.Q        GW-HEAD       CELL-BOT
     1     3    50  -0.550016E+00  -0.451635E+00   0.818040E+01   0.000000E+00
     1     5    55  -0.550016E+00  -0.379490E+00   0.698789E+01   0.000000E+00
 
 
 SOLVING FOR HEAD 
                                                   Max.-Head-Change                         Max.-Flux-Residual
  Residual-Control   Outer-Iter.   Inner-Iter.     Column Row Layer    Maximum-Head-Change  Column Row Layer    Maximum-Flux-Residual          L2-NORM 
          0                 1           2            72    1     1      -0.1425836121E-01      72    3    1        -0.1526434204E-02      0.2928376327E-01
          0                 2           2            72    1     1       0.1363051245E-02      72    3    1         0.1526372903E-03      0.2866428212E-02
          0                 3           2            72    1     1      -0.1188044530E-03      72    3    1        -0.1373763243E-04      0.2703184168E-03
          0                 4           1            72    1     1       0.9303215852E-05      75    4    1        -0.1216430229E-05      0.2268328476E-04
          0                 5           1            71    1     1      -0.6436292698E-06      76    4    1         0.9882518626E-07      0.1644970408E-05

    ------------------------------------------------
       NWT REQUIRED            5 OUTER ITERATIONS 
       AND A TOTAL OF          8 INNER ITERATIONS.
    ------------------------------------------------

 NO OUTPUT CONTROL FOR STRESS PERIOD   24   TIME STEP    8
 
 WELLS WITH REDUCED PUMPING FOR STRESS PERIOD    24 TIME STEP     8
   LAY   ROW   COL         APPL.Q          ACT.Q        GW-HEAD       CELL-BOT
     1     3    50  -0.550023E+00  -0.452150E+00   0.818920E+01   0.000000E+00
     1     5    55  -0.550023E+00  -0.379863E+00   0.699320E+01   0.000000E+00
 
 
 SOLVING FOR HEAD 
                                                   Max.-Head-Change                         Max.-Flux-Residual
  Residual-Control   Outer-Iter.   Inner-Iter.     Column Row Layer    Maximum-Head-Change  Column Row Layer    Maximum-Flux-Residual          L2-NORM 
          0                 1           2            72    1     1      -0.1566565177E-01      72    3    1        -0.1524994483E-02      0.2921805034E-01
          0                 2           2            72    1     1       0.1492276794E-02      72    3    1         0.1524927124E-03      0.2860331254E-02
          0                 3           2            72    1     1      -0.1296546214E-03      72    3    1        -0.1372466268E-04      0.2703838572E-03
          0                 4           1            72    1     1       0.1012724488E-04      75    4    1        -0.1261482131E-05      0.2278673960E-04
          0                 5           1            71    1     1      -0.6994185671E-06      76    4    1         0.1035543189E-06      0.1659518647E-05

    ------------------------------------------------
       NWT REQUIRED            5 OUTER ITERATIONS 
       AND A TOTAL OF          8 INNER ITERATIONS.
    ------------------------------------------------

 NO OUTPUT CONTROL FOR STRESS PERIOD   24   TIME STEP    9
 
 WELLS WITH REDUCED PUMPING FOR STRESS PERIOD    24 TIME STEP     9
   LAY   ROW   COL         APPL.Q          ACT.Q        GW-HEAD       CELL-BOT
     1     3    50  -0.549977E+00  -0.452532E+00   0.819644E+01   0.000000E+00
     1     5    55  -0.549977E+00  -0.380116E+00   0.699731E+01   0.000000E+00
 
 
 SOLVING FOR HEAD 
                                                   Max.-Head-Change                         Max.-Flux-Residual
  Residual-Control   Outer-Iter.   Inner-Iter.     Column Row Layer    Maximum-Head-Change  Column Row Layer    Maximum-Flux-Residual          L2-NORM 
          0                 1           2            72    1     1      -0.1720946976E-01      72    2    1        -0.1523467593E-02      0.2916220686E-01
          0                 2           2            72    1     1       0.1633311525E-02      72    2    1         0.1523432818E-03      0.2855337409E-02
          0                 3           2            72    1     1      -0.1414248195E-03      72    2    1        -0.1371117564E-04      0.2705576239E-03
          0                 4           1            72    1     1       0.1101557507E-04      75    4    1        -0.1305352219E-05      0.2290069975E-04
          0                 5           1            71    1     1      -0.7592203560E-06      76    4    1         0.1082448726E-06      0.1675141803E-05

    ------------------------------------------------
       NWT REQUIRED            5 OUTER ITERATIONS 
       AND A TOTAL OF          8 INNER ITERATIONS.
    ------------------------------------------------

 NO OUTPUT CONTROL FOR STRESS PERIOD   24   TIME STEP   10
 
 WELLS WITH REDUCED PUMPING FOR STRESS PERIOD    24 TIME STEP    10
   LAY   ROW   COL         APPL.Q          ACT.Q        GW-HEAD       CELL-BOT
     1     3    50  -0.550013E+00  -0.452895E+00   0.820222E+01   0.000000E+00
     1     5    55  -0.550013E+00  -0.380345E+00   0.700026E+01   0.000000E+00
 
 
 SOLVING FOR HEAD 
                                                   Max.-Head-Change                         Max.-Flux-Residual
  Residual-Control   Outer-Iter.   Inner-Iter.     Column Row Layer    Maximum-Head-Change  Column Row Layer    Maximum-Flux-Residual          L2-NORM 
          0                 1           2            72    1     1      -0.1890319539E-01      72    1    1        -0.1521909637E-02      0.2911597995E-01
          0                 2           2            72    1     1       0.1787380295E-02      72    1    1         0.1521885228E-03      0.2850795831E-02
          0                 3           2            72    1     1      -0.1541984828E-03      72    7    1        -0.1369719030E-04      0.2707161701E-03
          0                 4           1            72    1     1       0.1197305413E-04      75    4    1        -0.1347895928E-05      0.2301358793E-04
          0                 5           1            71    1     1      -0.8232874917E-06      76    4    1         0.1128749929E-06      0.1691054552E-05

    ------------------------------------------------
       NWT REQUIRED            5 OUTER ITERATIONS 
       AND A TOTAL OF          8 INNER ITERATIONS.
    ------------------------------------------------

 NO OUTPUT CONTROL FOR STRESS PERIOD   24   TIME STEP   11
 
 WELLS WITH REDUCED PUMPING FOR STRESS PERIOD    24 TIME STEP    11
   LAY   ROW   COL         APPL.Q          ACT.Q        GW-HEAD       CELL-BOT
     1     3    50  -0.550018E+00  -0.453178E+00   0.820704E+01   0.000000E+00
     1     5    55  -0.550018E+00  -0.380501E+00   0.700246E+01   0.000000E+00
 
 
 SOLVING FOR HEAD 
                                                   Max.-Head-Change                         Max.-Flux-Residual
  Residual-Control   Outer-Iter.   Inner-Iter.     Column Row Layer    Maximum-Head-Change  Column Row Layer    Maximum-Flux-Residual          L2-NORM 
          0                 1           2            72    1     1      -0.2076354657E-01      72    1    1        -0.1520218763E-02      0.2907510192E-01
          0                 2           2            72    1     1       0.1955605056E-02      72    7    1         0.1520190410E-03      0.2846786460E-02
          0                 3           2            72    7     1      -0.1680693097E-03      72    7    1        -0.1368197685E-04      0.2709138110E-03
          0                 4           1            71    1     1       0.1300788463E-04      75    4    1        -0.1388980339E-05      0.2312979003E-04
          0                 5           1            71    1     1      -0.8920592016E-06      76    4    1         0.1174235891E-06      0.1707413343E-05

    ------------------------------------------------
       NWT REQUIRED            5 OUTER ITERATIONS 
       AND A TOTAL OF          8 INNER ITERATIONS.
    ------------------------------------------------

 NO OUTPUT CONTROL FOR STRESS PERIOD   24   TIME STEP   12
 
 WELLS WITH REDUCED PUMPING FOR STRESS PERIOD    24 TIME STEP    12
   LAY   ROW   COL         APPL.Q          ACT.Q        GW-HEAD       CELL-BOT
     1     3    50  -0.549979E+00  -0.453393E+00   0.821133E+01   0.000000E+00
     1     5    55  -0.549979E+00  -0.380597E+00   0.700424E+01   0.000000E+00
 
 
 SOLVING FOR HEAD 
                                                   Max.-Head-Change                         Max.-Flux-Residual
  Residual-Control   Outer-Iter.   Inner-Iter.     Column Row Layer    Maximum-Head-Change  Column Row Layer    Maximum-Flux-Residual          L2-NORM 
          0                 1           2            72    1     1      -0.2280598800E-01      72    1    1        -0.1518548900E-02      0.2903202622E-01
          0                 2           2            72    7     1       0.2139589569E-02      72    7    1         0.1518515766E-03      0.2842683435E-02
          0                 3           2            72    7     1      -0.1831495007E-03      72    7    1        -0.1366695063E-04      0.2710737421E-03
          0                 4           1            71    1     1       0.1413028131E-04      75    4    1        -0.1428489774E-05      0.2324151148E-04
          0                 5           1            71    1     1      -0.9661378901E-06      76    4    1         0.1218704764E-06      0.1723586844E-05

    ------------------------------------------------
       NWT REQUIRED            5 OUTER ITERATIONS 
       AND A TOTAL OF          8 INNER ITERATIONS.
    ------------------------------------------------

 NO OUTPUT CONTROL FOR STRESS PERIOD   24   TIME STEP   13
 
 WELLS WITH REDUCED PUMPING FOR STRESS PERIOD    24 TIME STEP    13
   LAY   ROW   COL         APPL.Q          ACT.Q        GW-HEAD       CELL-BOT
     1     3    50  -0.549983E+00  -0.453589E+00   0.821467E+01   0.000000E+00
     1     5    55  -0.549983E+00  -0.380671E+00   0.700526E+01   0.000000E+00
 
 
 SOLVING FOR HEAD 
                                                   Max.-Head-Change                         Max.-Flux-Residual
  Residual-Control   Outer-Iter.   Inner-Iter.     Column Row Layer    Maximum-Head-Change  Column Row Layer    Maximum-Flux-Residual          L2-NORM 
          0                 1           2            72    1     1      -0.2504588819E-01      72    2    1        -0.1516812296E-02      0.2899463561E-01
          0                 2           2            72    7     1       0.2340437781E-02      72    7    1         0.1516770322E-03      0.2838329613E-02
          0                 3           2            72    7     1      -0.1995122798E-03      72    7    1        -0.1365129405E-04      0.2711773369E-03
          0                 4           1            71    1     1       0.1533464750E-04      75    4    1        -0.1466316984E-05      0.2334905191E-04
          0                 5           1            71    1     1      -0.1044960800E-05      76    4    1         0.1261965927E-06      0.1739610290E-05
          0                 6           1            71    1     1       0.6188454236E-07      76    4    1        -0.8542444974E-08      0.1097406151E-06

    ------------------------------------------------
       NWT REQUIRED            6 OUTER ITERATIONS 
       AND A TOTAL OF          9 INNER ITERATIONS.
    ------------------------------------------------

 NO OUTPUT CONTROL FOR STRESS PERIOD   24   TIME STEP   14
 
 WELLS WITH REDUCED PUMPING FOR STRESS PERIOD    24 TIME STEP    14
   LAY   ROW   COL         APPL.Q          ACT.Q        GW-HEAD       CELL-BOT
     1     3    50  -0.550012E+00  -0.453764E+00   0.821730E+01   0.000000E+00
     1     5    55  -0.550012E+00  -0.380714E+00   0.700560E+01   0.000000E+00
 
 
 SOLVING FOR HEAD 
                                                   Max.-Head-Change                         Max.-Flux-Residual
  Residual-Control   Outer-Iter.   Inner-Iter.     Column Row Layer    Maximum-Head-Change  Column Row Layer    Maximum-Flux-Residual          L2-NORM 
          0                 1           2            72    1     1      -0.2750073603E-01      72    1    1        -0.1514868047E-02      0.2895935236E-01
          0                 2           2            72    7     1       0.2559620941E-02      72    7    1         0.1514821761E-03      0.2834400847E-02
          0                 3           2            72    7     1      -0.2172640133E-03      72    7    1        -0.1363381662E-04      0.2712762883E-03
          0                 4           1            71    1     1       0.1662869205E-04      74    4    1        -0.1502746285E-05      0.2345309569E-04
          0                 5           1            71    1     1      -0.1128907955E-05      76    4    1         0.1303844055E-06      0.1755306636E-05
          0                 6           1            71    7     1       0.6665565508E-07      76    4    1        -0.8893598746E-08      0.1112060911E-06

    ------------------------------------------------
       NWT REQUIRED            6 OUTER ITERATIONS 
       AND A TOTAL OF          9 INNER ITERATIONS.
    ------------------------------------------------

 NO OUTPUT CONTROL FOR STRESS PERIOD   24   TIME STEP   15
 
 WELLS WITH REDUCED PUMPING FOR STRESS PERIOD    24 TIME STEP    15
   LAY   ROW   COL         APPL.Q          ACT.Q        GW-HEAD       CELL-BOT
     1     3    50  -0.550012E+00  -0.453896E+00   0.821959E+01   0.000000E+00
     1     5    55  -0.550012E+00  -0.380715E+00   0.700561E+01   0.000000E+00
 
 
 SOLVING FOR HEAD 
                                                   Max.-Head-Change                         Max.-Flux-Residual
  Residual-Control   Outer-Iter.   Inner-Iter.     Column Row Layer    Maximum-Head-Change  Column Row Layer    Maximum-Flux-Residual          L2-NORM 
          0                 1           2            72    7     1      -0.3019040509E-01      72    1    1        -0.1512650382E-02      0.2892074971E-01
          0                 2           2            72    7     1       0.2798904229E-02      72    7    1         0.1512595901E-03      0.2830877588E-02
          0                 3           2            72    7     1      -0.2365361423E-03      72    7    1        -0.1361385079E-04      0.2714264464E-03
          0                 4           1            71    1     1       0.1802404083E-04      74    4    1        -0.1537320475E-05      0.2355940969E-04
          0                 5           1            71    1     1      -0.1218555565E-05      74    4    1         0.1344997322E-06      0.1770897005E-05
          0                 6           1            71    1     1       0.7169851863E-07      76    4    1        -0.9236863718E-08      0.1126620226E-06

    ------------------------------------------------
       NWT REQUIRED            6 OUTER ITERATIONS 
       AND A TOTAL OF          9 INNER ITERATIONS.
    ------------------------------------------------

 NO OUTPUT CONTROL FOR STRESS PERIOD   24   TIME STEP   16
 
 WELLS WITH REDUCED PUMPING FOR STRESS PERIOD    24 TIME STEP    16
   LAY   ROW   COL         APPL.Q          ACT.Q        GW-HEAD       CELL-BOT
     1     3    50  -0.550012E+00  -0.454013E+00   0.822162E+01   0.000000E+00
     1     5    55  -0.550012E+00  -0.380700E+00   0.700541E+01   0.000000E+00
 
 
 SOLVING FOR HEAD 
                                                   Max.-Head-Change                         Max.-Flux-Residual
  Residual-Control   Outer-Iter.   Inner-Iter.     Column Row Layer    Maximum-Head-Change  Column Row Layer    Maximum-Flux-Residual          L2-NORM 
          0                 1           2            72    7     1      -0.3313826025E-01      72    1    1        -0.1510138060E-02      0.2887757764E-01
          0                 2           2            72    7     1       0.3060044056E-02      72    7    1         0.1510074694E-03      0.2826747165E-02
          0                 3           2            72    7     1      -0.2574495208E-03      72    7    1        -0.1359123458E-04      0.2714704600E-03
          0                 4           1            71    1     1       0.1952534951E-04      74    4    1        -0.1569941796E-05      0.2365286494E-04
          0                 5           1            71    1     1      -0.1314096040E-05      74    4    1         0.1384460546E-06      0.1785206970E-05
          0                 6           1            71    7     1       0.7702092932E-07      76    4    1        -0.9570516823E-08      0.1140348974E-06

    ------------------------------------------------
       NWT REQUIRED            6 OUTER ITERATIONS 
       AND A TOTAL OF          9 INNER ITERATIONS.
    ------------------------------------------------

 NO OUTPUT CONTROL FOR STRESS PERIOD   24   TIME STEP   17
 
 WELLS WITH REDUCED PUMPING FOR STRESS PERIOD    24 TIME STEP    17
   LAY   ROW   COL         APPL.Q          ACT.Q        GW-HEAD       CELL-BOT
     1     3    50  -0.549993E+00  -0.454099E+00   0.822338E+01   0.000000E+00
     1     5    55  -0.549993E+00  -0.380660E+00   0.700500E+01   0.000000E+00
 
 
 SOLVING FOR HEAD 
                                                   Max.-Head-Change                         Max.-Flux-Residual
  Residual-Control   Outer-Iter.   Inner-Iter.     Column Row Layer    Maximum-Head-Change  Column Row Layer    Maximum-Flux-Residual          L2-NORM 
          0                 1           2            72    7     1      -0.3636796782E-01      72    1    1        -0.1507408263E-02      0.2883238326E-01
          0                 2           2            72    7     1       0.3345274815E-02      72    7    1         0.1507334666E-03      0.2822054101E-02
          0                 3           2            72    7     1      -0.2801821680E-03      72    7    1        -0.1356665669E-04      0.2714246794E-03
          0                 4           1            71    1     1       0.2114914539E-04      74    4    1        -0.1600559655E-05      0.2373551419E-04
          0                 5           1            71    1     1      -0.1416448467E-05      74    4    1         0.1422099825E-06      0.1798275440E-05
          0                 6           1            70    7     1       0.8267110632E-07      76    4    1        -0.9892836772E-08      0.1153170817E-06

    ------------------------------------------------
       NWT REQUIRED            6 OUTER ITERATIONS 
       AND A TOTAL OF          9 INNER ITERATIONS.
    ------------------------------------------------

 NO OUTPUT CONTROL FOR STRESS PERIOD   24   TIME STEP   18
 
 WELLS WITH REDUCED PUMPING FOR STRESS PERIOD    24 TIME STEP    18
   LAY   ROW   COL         APPL.Q          ACT.Q        GW-HEAD       CELL-BOT
     1     3    50  -0.549991E+00  -0.454167E+00   0.822460E+01   0.000000E+00
     1     5    55  -0.549991E+00  -0.380599E+00   0.700415E+01   0.000000E+00
 
 
 SOLVING FOR HEAD 
                                                   Max.-Head-Change                         Max.-Flux-Residual
  Residual-Control   Outer-Iter.   Inner-Iter.     Column Row Layer    Maximum-Head-Change  Column Row Layer    Maximum-Flux-Residual          L2-NORM 
          0                 1           2            72    7     1      -0.3990383135E-01      72    1    1        -0.1504422449E-02      0.2879220376E-01
          0                 2           2            72    7     1       0.3656550134E-02      72    7    1         0.1504336811E-03      0.2816652349E-02
          0                 3           2            72    7     1      -0.3048707481E-03      72    7    1        -0.1353976585E-04      0.2711318811E-03
          0                 4           1            71    1     1       0.2289747445E-04      74    4    1        -0.1629109081E-05      0.2378783124E-04
          0                 5           1            71    1     1      -0.1525450259E-05      74    4    1         0.1457779550E-06      0.1808469737E-05
          0                 6           1            71    7     1       0.8860531110E-07      74    4    1        -0.1020562301E-07      0.1164072818E-06

    ------------------------------------------------
       NWT REQUIRED            6 OUTER ITERATIONS 
       AND A TOTAL OF          9 INNER ITERATIONS.
    ------------------------------------------------

 NO OUTPUT CONTROL FOR STRESS PERIOD   24   TIME STEP   19
 
 WELLS WITH REDUCED PUMPING FOR STRESS PERIOD    24 TIME STEP    19
   LAY   ROW   COL         APPL.Q          ACT.Q        GW-HEAD       CELL-BOT
     1     3    50  -0.549988E+00  -0.454216E+00   0.822549E+01   0.000000E+00
     1     5    55  -0.549988E+00  -0.380500E+00   0.700274E+01   0.000000E+00
 
 
 SOLVING FOR HEAD 
                                                   Max.-Head-Change                         Max.-Flux-Residual
  Residual-Control   Outer-Iter.   Inner-Iter.     Column Row Layer    Maximum-Head-Change  Column Row Layer    Maximum-Flux-Residual          L2-NORM 
          0                 1           2            73    7     1      -0.4377619850E-01      73    1    1        -0.1501159620E-02      0.2876242758E-01
          0                 2           2            72    7     1       0.3996252574E-02      73    1    1         0.1501063248E-03      0.2811632038E-02
          0                 3           2            72    7     1      -0.3316939852E-03      73    1    1        -0.1351041083E-04      0.2707912984E-03
          0                 4           1            71    1     1       0.2478378252E-04      74    4    1        -0.1655540418E-05      0.2382777957E-04
          0                 5           1            71    1     1      -0.1641720390E-05      74    4    1         0.1491383657E-06      0.1816672972E-05
          0                 6           1            71    7     1       0.9485959042E-07      74    4    1        -0.1050768539E-07      0.1173284851E-06

    ------------------------------------------------
       NWT REQUIRED            6 OUTER ITERATIONS 
       AND A TOTAL OF          9 INNER ITERATIONS.
    ------------------------------------------------

 NO OUTPUT CONTROL FOR STRESS PERIOD   24   TIME STEP   20
 
 WELLS WITH REDUCED PUMPING FOR STRESS PERIOD    24 TIME STEP    20
   LAY   ROW   COL         APPL.Q          ACT.Q        GW-HEAD       CELL-BOT
     1     3    50  -0.550006E+00  -0.454253E+00   0.822588E+01   0.000000E+00
     1     5    55  -0.550006E+00  -0.380384E+00   0.700088E+01   0.000000E+00
 
 
 SOLVING FOR HEAD 
                                                   Max.-Head-Change                         Max.-Flux-Residual
  Residual-Control   Outer-Iter.   Inner-Iter.     Column Row Layer    Maximum-Head-Change  Column Row Layer    Maximum-Flux-Residual          L2-NORM 
          0                 1           2            73    7     1      -0.4801390330E-01      73    1    1        -0.1497627136E-02      0.2872564952E-01
          0                 2           2            72    7     1       0.4366824827E-02      73    1    1         0.1497516017E-03      0.2808551981E-02
          0                 3           2            72    7     1      -0.3608325551E-03      73    1    1        -0.1347860237E-04      0.2707421024E-03
          0                 4           1            71    7     1       0.2681866160E-04      74    4    1        -0.1679806370E-05      0.2389182608E-04
          0                 5           1            71    7     1      -0.1765678978E-05      74    4    1         0.1522806041E-06      0.1825568172E-05
          0                 6           1            71    7     1       0.1014460121E-06      74    4    1        -0.1079405187E-07      0.1182282571E-06

    ------------------------------------------------
       NWT REQUIRED            6 OUTER ITERATIONS 
       AND A TOTAL OF          9 INNER ITERATIONS.
    ------------------------------------------------

 NO OUTPUT CONTROL FOR STRESS PERIOD   24   TIME STEP   21
 
 WELLS WITH REDUCED PUMPING FOR STRESS PERIOD    24 TIME STEP    21
   LAY   ROW   COL         APPL.Q          ACT.Q        GW-HEAD       CELL-BOT
     1     3    50  -0.550000E+00  -0.454249E+00   0.822590E+01   0.000000E+00
     1     5    55  -0.550000E+00  -0.380227E+00   0.699868E+01   0.000000E+00
 
 
 SOLVING FOR HEAD 
                                                   Max.-Head-Change                         Max.-Flux-Residual
  Residual-Control   Outer-Iter.   Inner-Iter.     Column Row Layer    Maximum-Head-Change  Column Row Layer    Maximum-Flux-Residual          L2-NORM 
          0                 1           2            73    7     1      -0.5264742104E-01      73    1    1        -0.1493721249E-02      0.2872365267E-01
          0                 2           2            72    7     1       0.4771007202E-02      73    1    1         0.1493593377E-03      0.2802954768E-02
          0                 3           2            72    7     1      -0.3924952876E-03      73    1    1        -0.1344342791E-04      0.2700660463E-03
          0                 4           1            71    7     1       0.2901589303E-04      74    4    1        -0.1701872131E-05      0.2388646595E-04
          0                 5           1            71    7     1      -0.1897768098E-05      74    4    1         0.1551957745E-06      0.1827889361E-05
          0                 6           1            71    7     1       0.1083606856E-06      74    4    1        -0.1106318237E-07      0.1186643258E-06

    ------------------------------------------------
       NWT REQUIRED            6 OUTER ITERATIONS 
       AND A TOTAL OF          9 INNER ITERATIONS.
    ------------------------------------------------

 NO OUTPUT CONTROL FOR STRESS PERIOD   24   TIME STEP   22
 
 WELLS WITH REDUCED PUMPING FOR STRESS PERIOD    24 TIME STEP    22
   LAY   ROW   COL         APPL.Q          ACT.Q        GW-HEAD       CELL-BOT
     1     3    50  -0.549996E+00  -0.454217E+00   0.822539E+01   0.000000E+00
     1     5    55  -0.549996E+00  -0.380037E+00   0.699598E+01   0.000000E+00
 
 
 SOLVING FOR HEAD 
                                                   Max.-Head-Change                         Max.-Flux-Residual
  Residual-Control   Outer-Iter.   Inner-Iter.     Column Row Layer    Maximum-Head-Change  Column Row Layer    Maximum-Flux-Residual          L2-NORM 
          0                 1           3            73    1     1      -0.5771057964E-01      73    1    1        -0.1489400166E-02      0.2886786344E-01
          0                 2           2            72    7     1       0.5211672857E-02      73    1    1         0.1489253313E-03      0.2800392936E-02
          0                 3           2            72    7     1      -0.4268969631E-03      73    4    1         0.1341467771E-04      0.2688145400E-03
          0                 4           1            71    7     1       0.3138811532E-04      74    4    1        -0.1721706125E-05      0.2379834236E-04
          0                 5           1            71    7     1      -0.2038026019E-05      74    4    1         0.1578752453E-06      0.1822127460E-05
          0                 6           1            71    7     1       0.1155586624E-06      74    4    1        -0.1131315663E-07      0.1185562989E-06

    ------------------------------------------------
       NWT REQUIRED            6 OUTER ITERATIONS 
       AND A TOTAL OF         10 INNER ITERATIONS.
    ------------------------------------------------

 NO OUTPUT CONTROL FOR STRESS PERIOD   24   TIME STEP   23
 
 WELLS WITH REDUCED PUMPING FOR STRESS PERIOD    24 TIME STEP    23
   LAY   ROW   COL         APPL.Q          ACT.Q        GW-HEAD       CELL-BOT
     1     3    50  -0.549993E+00  -0.454148E+00   0.822425E+01   0.000000E+00
     1     5    55  -0.549993E+00  -0.379807E+00   0.699269E+01   0.000000E+00
 
 
 SOLVING FOR HEAD 
                                                   Max.-Head-Change                         Max.-Flux-Residual
  Residual-Control   Outer-Iter.   Inner-Iter.     Column Row Layer    Maximum-Head-Change  Column Row Layer    Maximum-Flux-Residual          L2-NORM 
          0                 1           3            73    1     1      -0.6325261259E-01      73    1    1        -0.1484622614E-02      0.2910815290E-01
          0                 2           2            73    7     1       0.5692763804E-02      73    1    1         0.1484457291E-03      0.2815665092E-02
          0                 3           2            72    7     1      -0.4643085229E-03      74    4    1         0.1349060742E-04      0.2695702596E-03
          0                 4           1            72    7     1       0.3395348496E-04      74    4    1        -0.1741237693E-05      0.2388070140E-04
          0                 5           1            71    7     1      -0.2186766432E-05      74    4    1         0.1604923696E-06      0.1826588654E-05
          0                 6           1            71    7     1       0.1230347227E-06      74    4    1        -0.1155515683E-07      0.1189564900E-06

    ------------------------------------------------
       NWT REQUIRED            6 OUTER ITERATIONS 
       AND A TOTAL OF         10 INNER ITERATIONS.
    ------------------------------------------------

 NO OUTPUT CONTROL FOR STRESS PERIOD   24   TIME STEP   24
 
 WELLS WITH REDUCED PUMPING FOR STRESS PERIOD    24 TIME STEP    24
   LAY   ROW   COL         APPL.Q          ACT.Q        GW-HEAD       CELL-BOT
     1     3    50  -0.549997E+00  -0.454041E+00   0.822232E+01   0.000000E+00
     1     5    55  -0.549997E+00  -0.379532E+00   0.698868E+01   0.000000E+00
 
 
 SOLVING FOR HEAD 
                                                   Max.-Head-Change                         Max.-Flux-Residual
  Residual-Control   Outer-Iter.   Inner-Iter.     Column Row Layer    Maximum-Head-Change  Column Row Layer    Maximum-Flux-Residual          L2-NORM 
          0                 1           3            76    4     1      -0.6993732573E-01      73    1    1        -0.1479646416E-02      0.2938414240E-01
          0                 2           2            74    7     1       0.6259521858E-02      73    1    1         0.1479532444E-03      0.2838254658E-02
          0                 3           2            74    7     1      -0.5079566572E-03      71    4    1         0.1344394578E-04      0.2710673074E-03
          0                 4           1            73    7     1       0.3688788828E-04      71    4    1        -0.1739939663E-05      0.2401471295E-04
          0                 5           1            71    7     1      -0.2347502602E-05      72    4    1         0.1602373985E-06      0.1832308498E-05
          0                 6           1            71    7     1       0.1309405063E-06      72    4    1        -0.1159880547E-07      0.1193156775E-06

    ------------------------------------------------
       NWT REQUIRED            6 OUTER ITERATIONS 
       AND A TOTAL OF         10 INNER ITERATIONS.
    ------------------------------------------------

 NO OUTPUT CONTROL FOR STRESS PERIOD   24   TIME STEP   25
 
 WELLS WITH REDUCED PUMPING FOR STRESS PERIOD    24 TIME STEP    25
   LAY   ROW   COL         APPL.Q          ACT.Q        GW-HEAD       CELL-BOT
     1     3    50  -0.550006E+00  -0.453886E+00   0.821950E+01   0.000000E+00
     1     5    55  -0.550006E+00  -0.379204E+00   0.698387E+01   0.000000E+00
 
 
 SOLVING FOR HEAD 
                                                   Max.-Head-Change                         Max.-Flux-Residual
  Residual-Control   Outer-Iter.   Inner-Iter.     Column Row Layer    Maximum-Head-Change  Column Row Layer    Maximum-Flux-Residual          L2-NORM 
          0                 1           3            75    4     1      -0.7822263815E-01      75    3    1        -0.1492279058E-02      0.2967964769E-01
          0                 2           2            75    7     1       0.6962573816E-02      75    3    1         0.1492337354E-03      0.2863397353E-02
          0                 3           2            75    7     1      -0.5633244734E-03      75    3    1        -0.1343302680E-04      0.2727426774E-03
          0                 4           1            75    7     1       0.4068707315E-04      69    4    1        -0.1691116513E-05      0.2415444370E-04
          0                 5           1            73    7     1      -0.2552746197E-05      70    4    1         0.1576372632E-06      0.1834845638E-05
          0                 6           1            71    7     1       0.1402673548E-06      74    4    1        -0.1159524565E-07      0.1193005156E-06

    ------------------------------------------------
       NWT REQUIRED            6 OUTER ITERATIONS 
       AND A TOTAL OF         10 INNER ITERATIONS.
    ------------------------------------------------

 NO OUTPUT CONTROL FOR STRESS PERIOD   24   TIME STEP   26
 
 WELLS WITH REDUCED PUMPING FOR STRESS PERIOD    24 TIME STEP    26
   LAY   ROW   COL         APPL.Q          ACT.Q        GW-HEAD       CELL-BOT
     1     3    50  -0.550003E+00  -0.453669E+00   0.821576E+01   0.000000E+00
     1     5    55  -0.550003E+00  -0.378811E+00   0.697822E+01   0.000000E+00
 
 
 SOLVING FOR HEAD 
                                                   Max.-Head-Change                         Max.-Flux-Residual
  Residual-Control   Outer-Iter.   Inner-Iter.     Column Row Layer    Maximum-Head-Change  Column Row Layer    Maximum-Flux-Residual          L2-NORM 
          0                 1           3            74    4     1      -0.8685095025E-01      75    3    1        -0.1515212210E-02      0.2997132203E-01
          0                 2           2            75    7     1       0.7742135618E-02      75    3    1         0.1515171345E-03      0.2890468989E-02
          0                 3           2            75    7     1      -0.6253177945E-03      75    3    1        -0.1363882508E-04      0.2745741260E-03
          0                 4           1            75    7     1       0.4500452101E-04      75    4    1        -0.1675388718E-05      0.2429176195E-04
          0                 5           1            73    7     1      -0.2793446232E-05      72    4    1         0.1601210826E-06      0.1833038486E-05
          0                 6           1            73    7     1       0.1515546403E-06      74    4    1        -0.1185499876E-07      0.1188318621E-06

    ------------------------------------------------
       NWT REQUIRED            6 OUTER ITERATIONS 
       AND A TOTAL OF         10 INNER ITERATIONS.
    ------------------------------------------------

 NO OUTPUT CONTROL FOR STRESS PERIOD   24   TIME STEP   27
 
 WELLS WITH REDUCED PUMPING FOR STRESS PERIOD    24 TIME STEP    27
   LAY   ROW   COL         APPL.Q          ACT.Q        GW-HEAD       CELL-BOT
     1     3    50  -0.550001E+00  -0.453388E+00   0.821093E+01   0.000000E+00
     1     5    55  -0.550001E+00  -0.378347E+00   0.697157E+01   0.000000E+00
 
 
 SOLVING FOR HEAD 
                                                   Max.-Head-Change                         Max.-Flux-Residual
  Residual-Control   Outer-Iter.   Inner-Iter.     Column Row Layer    Maximum-Head-Change  Column Row Layer    Maximum-Flux-Residual          L2-NORM 
          0                 1           3            74    4     1      -0.9619686573E-01      74    3    1        -0.1530540662E-02      0.3023249493E-01
          0                 2           2            75    7     1       0.8592102224E-02      74    5    1         0.1530453490E-03      0.2916394240E-02
          0                 3           2            75    7     1      -0.6931298072E-03      74    3    1        -0.1377755756E-04      0.2765777406E-03
          0                 4           1            75    7     1       0.4972958888E-04      75    4    1        -0.1674334504E-05      0.2445912779E-04
          0                 5           1            73    7     1      -0.3051325984E-05      74    4    1         0.1617844294E-06      0.1831121236E-05
          0                 6           1            71    7     1       0.1637116554E-06      74    4    1        -0.1203933842E-07      0.1182940976E-06

    ------------------------------------------------
       NWT REQUIRED            6 OUTER ITERATIONS 
       AND A TOTAL OF         10 INNER ITERATIONS.
    ------------------------------------------------

 NO OUTPUT CONTROL FOR STRESS PERIOD   24   TIME STEP   28
 
 WELLS WITH REDUCED PUMPING FOR STRESS PERIOD    24 TIME STEP    28
   LAY   ROW   COL         APPL.Q          ACT.Q        GW-HEAD       CELL-BOT
     1     3    50  -0.550001E+00  -0.453036E+00   0.820482E+01   0.000000E+00
     1     5    55  -0.550001E+00  -0.377805E+00   0.696377E+01   0.000000E+00
 
 
 SOLVING FOR HEAD 
                                                   Max.-Head-Change                         Max.-Flux-Residual
  Residual-Control   Outer-Iter.   Inner-Iter.     Column Row Layer    Maximum-Head-Change  Column Row Layer    Maximum-Flux-Residual          L2-NORM 
          0                 1           3            74    4     1      -0.1063719429E+00      74    3    1        -0.1542163320E-02      0.3041338857E-01
          0                 2           2            74    7     1       0.9517234086E-02      74    5    1         0.1542024981E-03      0.2939590200E-02
          0                 3           2            74    7     1      -0.7670105571E-03      74    3    1        -0.1388268767E-04      0.2786859416E-03
          0                 4           1            74    7     1       0.5487721895E-04      76    4    1        -0.1666597687E-05      0.2464430661E-04
          0                 5           1            73    1     1      -0.3317297142E-05      76    4    1         0.1626463693E-06      0.1827063512E-05
          0                 6           1            71    7     1       0.1765021658E-06      76    4    1        -0.1215266288E-07      0.1175212247E-06

    ------------------------------------------------
       NWT REQUIRED            6 OUTER ITERATIONS 
       AND A TOTAL OF         10 INNER ITERATIONS.
    ------------------------------------------------

 NO OUTPUT CONTROL FOR STRESS PERIOD   24   TIME STEP   29
 
 WELLS WITH REDUCED PUMPING FOR STRESS PERIOD    24 TIME STEP    29
   LAY   ROW   COL         APPL.Q          ACT.Q        GW-HEAD       CELL-BOT
     1     3    50  -0.549996E+00  -0.452588E+00   0.819714E+01   0.000000E+00
     1     5    55  -0.549996E+00  -0.377170E+00   0.695468E+01   0.000000E+00
 
 
 SOLVING FOR HEAD 
                                                   Max.-Head-Change                         Max.-Flux-Residual
  Residual-Control   Outer-Iter.   Inner-Iter.     Column Row Layer    Maximum-Head-Change  Column Row Layer    Maximum-Flux-Residual          L2-NORM 
          0                 1           3            74    5     1      -0.1173684872E+00      74    3    1        -0.1550549395E-02      0.3052116524E-01
          0                 2           3            74    7     1       0.1051723428E-01      74    5    1         0.1550345388E-03      0.2952497553E-02
          0                 3           2            75    7     1      -0.8473147067E-03      74    5    1        -0.1395630206E-04      0.2798019033E-03
          0                 4           1            75    7     1       0.6046667359E-04      72    4    1        -0.1677318245E-05      0.2474029486E-04
          0                 5           1            73    1     1      -0.3590004599E-05      72    4    1         0.1635849696E-06      0.1813156842E-05
          0                 6           1            69    7     1       0.1885798660E-06      72    4    1        -0.1223731694E-07      0.1161085498E-06

    ------------------------------------------------
       NWT REQUIRED            6 OUTER ITERATIONS 
       AND A TOTAL OF         11 INNER ITERATIONS.
    ------------------------------------------------

 NO OUTPUT CONTROL FOR STRESS PERIOD   24   TIME STEP   30
 
 WELLS WITH REDUCED PUMPING FOR STRESS PERIOD    24 TIME STEP    30
   LAY   ROW   COL         APPL.Q          ACT.Q        GW-HEAD       CELL-BOT
     1     3    50  -0.549997E+00  -0.452045E+00   0.818774E+01   0.000000E+00
     1     5    55  -0.549997E+00  -0.376426E+00   0.694399E+01   0.000000E+00
 



 STREAM LISTING     PERIOD     24   STEP       30

 LAYER ROW COL. STREAM  RCH.   FLOW INTO    STREAM     FLOW OUT OF   OVRLND.    DIRECT     STREAM      STREAM      STREAM     STREAM  STREAMBED   FLOW TO   CHNG. UNSAT. 
                SEG.NO.  NO.   STRM. RCH.    LOSS       STRM. RCH.   RUNOFF     PRECIP       ET         HEAD        DEPTH      WIDTH  CONDCTNC.   WAT. TAB.

   1    4    1     1     1    1.1630E+00  6.4112E-04   1.1624E+00  0.000E+00  0.000E+00  0.000E+00  1.40648E+02  7.979E-01  2.767E+00  4.940E-04  7.022E-04 -6.105E-05
   1    4    2     1     2    1.1624E+00  6.4092E-04   1.1617E+00  0.000E+00  0.000E+00  0.000E+00  1.40348E+02  7.977E-01  2.767E+00  4.939E-04  7.019E-04 -6.093E-05
   1    4    3     1     3    1.1617E+00  6.4072E-04   1.1611E+00  0.000E+00  0.000E+00  0.000E+00  1.40047E+02  7.974E-01  2.767E+00  4.938E-04  7.015E-04 -6.081E-05
   1    4    4     1     4    1.1611E+00  6.4052E-04   1.1604E+00  0.000E+00  0.000E+00  0.000E+00  1.39747E+02  7.972E-01  2.766E+00  4.938E-04  7.012E-04 -6.067E-05
   1    4    5     1     5    1.1604E+00  6.4032E-04   1.1598E+00  0.000E+00  0.000E+00  0.000E+00  1.39447E+02  7.970E-01  2.766E+00  4.937E-04  7.008E-04 -6.052E-05
   1    4    6     1     6    1.1598E+00  6.4012E-04   1.1592E+00  0.000E+00  0.000E+00  0.000E+00  1.39147E+02  7.968E-01  2.766E+00  4.936E-04  7.005E-04 -6.036E-05
   1    4    7     1     7    1.1592E+00  6.3992E-04   1.1585E+00  0.000E+00  0.000E+00  0.000E+00  1.38847E+02  7.966E-01  2.766E+00  4.936E-04  7.001E-04 -6.019E-05
   1    4    8     1     8    1.1585E+00  6.3972E-04   1.1579E+00  0.000E+00  0.000E+00  0.000E+00  1.38546E+02  7.963E-01  2.765E+00  4.935E-04  6.997E-04 -5.999E-05
   1    4    9     1     9    1.1579E+00  6.3952E-04   1.1572E+00  0.000E+00  0.000E+00  0.000E+00  1.38246E+02  7.961E-01  2.765E+00  4.934E-04  6.993E-04 -5.979E-05
   1    4   10     1    10    1.1572E+00  6.3932E-04   1.1566E+00  0.000E+00  0.000E+00  0.000E+00  1.37946E+02  7.959E-01  2.765E+00  4.933E-04  6.989E-04 -5.957E-05
   1    4   11     1    11    1.1566E+00  6.3912E-04   1.1560E+00  0.000E+00  0.000E+00  0.000E+00  1.37646E+02  7.957E-01  2.764E+00  4.933E-04  6.985E-04 -5.934E-05
   1    4   12     1    12    1.1560E+00  6.3892E-04   1.1553E+00  0.000E+00  0.000E+00  0.000E+00  1.37345E+02  7.955E-01  2.764E+00  4.932E-04  6.980E-04 -5.909E-05
   1    4   13     1    13    1.1553E+00  6.3872E-04   1.1547E+00  0.000E+00  0.000E+00  0.000E+00  1.37045E+02  7.953E-01  2.764E+00  4.931E-04  6.976E-04 -5.884E-05
   1    4   14     1    14    1.1547E+00  6.3852E-04   1.1540E+00  0.000E+00  0.000E+00  0.000E+00  1.36745E+02  7.950E-01  2.764E+00  4.931E-04  6.971E-04 -5.859E-05
   1    4   15     1    15    1.1540E+00  6.3832E-04   1.1534E+00  0.000E+00  0.000E+00  0.000E+00  1.36445E+02  7.948E-01  2.763E+00  4.930E-04  6.966E-04 -5.833E-05
   1    4   16     1    16    1.1534E+00  6.3812E-04   1.1528E+00  0.000E+00  0.000E+00  0.000E+00  1.36145E+02  7.946E-01  2.763E+00  4.929E-04  6.962E-04 -5.806E-05
   1    4   17     1    17    1.1528E+00  6.3792E-04   1.1521E+00  0.000E+00  0.000E+00  0.000E+00  1.35844E+02  7.944E-01  2.763E+00  4.928E-04  6.957E-04 -5.780E-05
   1    4   18     1    18    1.1521E+00  6.3772E-04   1.1515E+00  0.000E+00  0.000E+00  0.000E+00  1.35544E+02  7.942E-01  2.763E+00  4.928E-04  6.953E-04 -5.754E-05
   1    4   19     1    19    1.1515E+00  6.3752E-04   1.1509E+00  0.000E+00  0.000E+00  0.000E+00  1.35244E+02  7.939E-01  2.762E+00  4.927E-04  6.948E-04 -5.728E-05
   1    4   20     1    20    1.1509E+00  6.3732E-04   1.1502E+00  0.000E+00  0.000E+00  0.000E+00  1.34944E+02  7.937E-01  2.762E+00  4.926E-04  6.944E-04 -5.703E-05
   1    4   21     1    21    1.1502E+00  6.3713E-04   1.1496E+00  0.000E+00  0.000E+00  0.000E+00  1.34644E+02  7.935E-01  2.762E+00  4.926E-04  6.939E-04 -5.680E-05
   1    4   22     1    22    1.1496E+00  6.3693E-04   1.1489E+00  0.000E+00  0.000E+00  0.000E+00  1.34343E+02  7.933E-01  2.762E+00  4.925E-04  6.935E-04 -5.659E-05
   1    4   23     1    23    1.1489E+00  6.3673E-04   1.1483E+00  0.000E+00  0.000E+00  0.000E+00  1.34043E+02  7.931E-01  2.761E+00  4.924E-04  6.931E-04 -5.641E-05
   1    4   24     1    24    1.1483E+00  6.3653E-04   1.1477E+00  0.000E+00  0.000E+00  0.000E+00  1.33743E+02  7.929E-01  2.761E+00  4.923E-04  6.928E-04 -5.624E-05
   1    4   25     1    25    1.1477E+00  6.3633E-04   1.1470E+00  0.000E+00  0.000E+00  0.000E+00  1.33443E+02  7.926E-01  2.761E+00  4.923E-04  6.924E-04 -5.603E-05
   1    4   26     1    26    1.1470E+00  6.3613E-04   1.1464E+00  0.000E+00  0.000E+00  0.000E+00  1.33142E+02  7.924E-01  2.761E+00  4.922E-04  6.919E-04 -5.580E-05
   1    4   27     1    27    1.1464E+00  6.3593E-04   1.1458E+00  0.000E+00  0.000E+00  0.000E+00  1.32842E+02  7.922E-01  2.760E+00  4.921E-04  6.935E-04 -5.761E-05
   1    4   28     1    28    1.1458E+00  6.3573E-04   1.1451E+00  0.000E+00  0.000E+00  0.000E+00  1.32542E+02  7.920E-01  2.760E+00  4.921E-04  7.661E-04 -1.303E-04
   1    4   29     1    29    1.1451E+00  6.3553E-04   1.1445E+00  0.000E+00  0.000E+00  0.000E+00  1.32242E+02  7.918E-01  2.760E+00  4.920E-04  8.108E-04 -1.752E-04
   1    4   30     1    30    1.1445E+00  6.3533E-04   1.1439E+00  0.000E+00  0.000E+00  0.000E+00  1.31942E+02  7.915E-01  2.760E+00  4.919E-04  8.397E-04 -2.044E-04
   1    4   31     1    31    1.1439E+00  6.3513E-04   1.1432E+00  0.000E+00  0.000E+00  0.000E+00  1.31641E+02  7.913E-01  2.759E+00  4.918E-04  8.706E-04 -2.354E-04
   1    4   32     1    32    1.1432E+00  6.3493E-04   1.1426E+00  0.000E+00  0.000E+00  0.000E+00  1.31341E+02  7.911E-01  2.759E+00  4.918E-04  9.036E-04 -2.686E-04
   1    4   33     1    33    1.1426E+00  6.3474E-04   1.1419E+00  0.000E+00  0.000E+00  0.000E+00  1.31041E+02  7.909E-01  2.759E+00  4.917E-04  9.240E-04 -2.893E-04
   1    4   34     1    34    1.1419E+00  6.3454E-04   1.1413E+00  0.000E+00  0.000E+00  0.000E+00  1.30741E+02  7.907E-01  2.758E+00  4.916E-04  9.498E-04 -3.152E-04
   1    4   35     1    35    1.1413E+00  6.3434E-04   1.1407E+00  0.000E+00  0.000E+00  0.000E+00  1.30440E+02  7.905E-01  2.758E+00  4.916E-04  9.863E-04 -3.519E-04
   1    4   36     1    36    1.1407E+00  6.3414E-04   1.1400E+00  0.000E+00  0.000E+00  0.000E+00  1.30140E+02  7.902E-01  2.758E+00  4.915E-04  1.025E-03 -3.912E-04
   1    4   37     1    37    1.1400E+00  6.3394E-04   1.1394E+00  0.000E+00  0.000E+00  0.000E+00  1.29840E+02  7.900E-01  2.758E+00  4.914E-04  1.064E-03 -4.302E-04
   1    4   38     1    38    1.1394E+00  6.3374E-04   1.1388E+00  0.000E+00  0.000E+00  0.000E+00  1.29540E+02  7.898E-01  2.757E+00  4.913E-04  1.104E-03 -4.707E-04
   1    4   39     1    39    1.1388E+00  6.3354E-04   1.1381E+00  0.000E+00  0.000E+00  0.000E+00  1.29240E+02  7.896E-01  2.757E+00  4.913E-04  1.148E-03 -5.142E-04
   1    4   40     1    40    1.1381E+00  6.3334E-04   1.1375E+00  0.000E+00  0.000E+00  0.000E+00  1.28939E+02  7.894E-01  2.757E+00  4.912E-04  1.209E-03 -5.753E-04
   1    4   41     1    41    1.1375E+00  6.3315E-04   1.1369E+00  0.000E+00  0.000E+00  0.000E+00  1.28639E+02  7.891E-01  2.757E+00  4.911E-04  1.253E-03 -6.201E-04
   1    4   42     1    42    1.1369E+00  6.3295E-04   1.1362E+00  0.000E+00  0.000E+00  0.000E+00  1.28339E+02  7.889E-01  2.756E+00  4.911E-04  1.328E-03 -6.954E-04
   1    4   43     1    43    1.1362E+00  6.3275E-04   1.1356E+00  0.000E+00  0.000E+00  0.000E+00  1.28039E+02  7.887E-01  2.756E+00  4.910E-04  1.428E-03 -7.954E-04
   1    4   44     1    44    1.1356E+00  6.3255E-04   1.1350E+00  0.000E+00  0.000E+00  0.000E+00  1.27738E+02  7.885E-01  2.756E+00  4.909E-04  1.541E-03 -9.080E-04
   1    4   45     1    45    1.1350E+00  6.3235E-04   1.1343E+00  0.000E+00  0.000E+00  0.000E+00  1.27438E+02  7.883E-01  2.756E+00  4.909E-04  1.623E-03 -9.911E-04
   1    4   46     1    46    1.1343E+00  6.3215E-04   1.1337E+00  0.000E+00  0.000E+00  0.000E+00  1.27138E+02  7.881E-01  2.755E+00  4.908E-04  1.720E-03 -1.088E-03
   1    4   47     1    47    1.1337E+00  6.3196E-04   1.1331E+00  0.000E+00  0.000E+00  0.000E+00  1.26838E+02  7.878E-01  2.755E+00  4.907E-04  1.973E-03 -1.342E-03
   1    4   48     1    48    1.1331E+00  6.3176E-04   1.1325E+00  0.000E+00  0.000E+00  0.000E+00  1.26538E+02  7.876E-01  2.755E+00  4.906E-04  2.065E-03 -1.433E-03
   1    4   49     1    49    1.1325E+00  6.3156E-04   1.1318E+00  0.000E+00  0.000E+00  0.000E+00  1.26237E+02  7.874E-01  2.755E+00  4.906E-04  2.106E-03 -1.475E-03
   1    4   50     1    50    1.1318E+00  6.3136E-04   1.1312E+00  0.000E+00  0.000E+00  0.000E+00  1.25937E+02  7.872E-01  2.754E+00  4.905E-04  2.210E-03 -1.579E-03
   1    4   51     1    51    1.1312E+00  6.3116E-04   1.1306E+00  0.000E+00  0.000E+00  0.000E+00  1.25637E+02  7.870E-01  2.754E+00  4.904E-04  2.220E-03 -1.589E-03
   1    4   52     1    52    1.1306E+00  6.3097E-04   1.1299E+00  0.000E+00  0.000E+00  0.000E+00  1.25337E+02  7.868E-01  2.754E+00  4.904E-04  2.224E-03 -1.593E-03
   1    4   53     1    53    1.1299E+00  6.3077E-04   1.1293E+00  0.000E+00  0.000E+00  0.000E+00  1.25037E+02  7.865E-01  2.754E+00  4.903E-04  2.222E-03 -1.591E-03
   1    4   54     1    54    1.1293E+00  6.3057E-04   1.1287E+00  0.000E+00  0.000E+00  0.000E+00  1.24736E+02  7.863E-01  2.753E+00  4.902E-04  2.213E-03 -1.583E-03
   1    4   55     1    55    1.1287E+00  6.3037E-04   1.1280E+00  0.000E+00  0.000E+00  0.000E+00  1.24436E+02  7.861E-01  2.753E+00  4.901E-04  2.199E-03 -1.569E-03
   1    4   56     1    56    1.1280E+00  6.3017E-04   1.1274E+00  0.000E+00  0.000E+00  0.000E+00  1.24136E+02  7.859E-01  2.753E+00  4.901E-04  2.089E-03 -1.459E-03
   1    4   57     1    57    1.1274E+00  6.2998E-04   1.1268E+00  0.000E+00  0.000E+00  0.000E+00  1.23836E+02  7.857E-01  2.752E+00  4.900E-04  2.074E-03 -1.444E-03
   1    4   58     1    58    1.1268E+00  6.2978E-04   1.1261E+00  0.000E+00  0.000E+00  0.000E+00  1.23535E+02  7.855E-01  2.752E+00  4.899E-04  1.954E-03 -1.324E-03
   1    4   59     1    59    1.1261E+00  6.2958E-04   1.1255E+00  0.000E+00  0.000E+00  0.000E+00  1.23235E+02  7.852E-01  2.752E+00  4.899E-04  1.801E-03 -1.172E-03
   1    4   60     1    60    1.1255E+00  6.2938E-04   1.1249E+00  0.000E+00  0.000E+00  0.000E+00  1.22935E+02  7.850E-01  2.752E+00  4.898E-04  1.624E-03 -9.948E-04
   1    4   61     1    61    1.1249E+00  6.2919E-04   1.1243E+00  0.000E+00  0.000E+00  0.000E+00  1.22635E+02  7.848E-01  2.751E+00  4.897E-04  1.531E-03 -9.020E-04
   1    4   62     1    62    1.1243E+00  6.2899E-04   1.1236E+00  0.000E+00  0.000E+00  0.000E+00  1.22335E+02  7.846E-01  2.751E+00  4.896E-04  1.451E-03 -8.224E-04
   1    4   63     1    63    1.1236E+00  6.2879E-04   1.1230E+00  0.000E+00  0.000E+00  0.000E+00  1.22034E+02  7.844E-01  2.751E+00  4.896E-04  1.379E-03 -7.499E-04
   1    4   64     1    64    1.1230E+00  6.2859E-04   1.1224E+00  0.000E+00  0.000E+00  0.000E+00  1.21734E+02  7.841E-01  2.751E+00  4.895E-04  1.237E-03 -6.080E-04
   1    4   65     1    65    1.1224E+00  6.2840E-04   1.1217E+00  0.000E+00  0.000E+00  0.000E+00  1.21434E+02  7.839E-01  2.750E+00  4.894E-04  1.189E-03 -5.609E-04
   1    4   66     1    66    1.1217E+00  6.2820E-04   1.1211E+00  0.000E+00  0.000E+00  0.000E+00  1.21134E+02  7.837E-01  2.750E+00  4.894E-04  1.128E-03 -4.996E-04
   1    4   67     1    67    1.1211E+00  6.2800E-04   1.1205E+00  0.000E+00  0.000E+00  0.000E+00  1.20833E+02  7.835E-01  2.750E+00  4.893E-04  1.082E-03 -4.538E-04
   1    4   68     1    68    1.1205E+00  6.2780E-04   1.1199E+00  0.000E+00  0.000E+00  0.000E+00  1.20533E+02  7.833E-01  2.750E+00  4.892E-04  1.039E-03 -4.110E-04
   1    4   69     1    69    1.1199E+00  6.2761E-04   1.1192E+00  0.000E+00  0.000E+00  0.000E+00  1.20233E+02  7.831E-01  2.749E+00  4.891E-04  9.987E-04 -3.711E-04
   1    4   70     1    70    1.1192E+00  6.2741E-04   1.1186E+00  0.000E+00  0.000E+00  0.000E+00  1.19933E+02  7.828E-01  2.749E+00  4.891E-04  9.568E-04 -3.294E-04
   1    4   71     1    71    1.1186E+00  6.2721E-04   1.1180E+00  0.000E+00  0.000E+00  0.000E+00  1.19633E+02  7.826E-01  2.749E+00  4.890E-04  9.177E-04 -2.904E-04
   1    4   72     1    72    1.1180E+00  6.2702E-04   1.1173E+00  0.000E+00  0.000E+00  0.000E+00  1.19332E+02  7.824E-01  2.749E+00  4.889E-04  8.894E-04 -2.624E-04
   1    4   73     1    73    1.1173E+00  6.2682E-04   1.1167E+00  0.000E+00  0.000E+00  0.000E+00  1.19032E+02  7.822E-01  2.748E+00  4.889E-04  8.668E-04 -2.400E-04
   1    4   74     1    74    1.1167E+00  6.2662E-04   1.1161E+00  0.000E+00  0.000E+00  0.000E+00  1.18732E+02  7.820E-01  2.748E+00  4.888E-04  8.315E-04 -2.048E-04
   1    4   75     1    75    1.1161E+00  6.2643E-04   1.1155E+00  0.000E+00  0.000E+00  0.000E+00  1.18432E+02  7.818E-01  2.748E+00  4.887E-04  7.984E-04 -1.720E-04
   1    4   76     1    76    1.1155E+00  6.2623E-04   1.1148E+00  0.000E+00  0.000E+00  0.000E+00  1.18132E+02  7.815E-01  2.748E+00  4.887E-04  7.675E-04 -1.413E-04
   1    4   77     1    77    1.1148E+00  6.2603E-04   1.1142E+00  0.000E+00  0.000E+00  0.000E+00  1.17831E+02  7.813E-01  2.747E+00  4.886E-04  7.526E-04 -1.266E-04
   1    4   78     1    78    1.1142E+00  6.2583E-04   1.1136E+00  0.000E+00  0.000E+00  0.000E+00  1.17531E+02  7.811E-01  2.747E+00  4.885E-04  7.150E-04 -8.914E-05
   1    4   79     1    79    1.1136E+00  6.2564E-04   1.1130E+00  0.000E+00  0.000E+00  0.000E+00  1.17231E+02  7.809E-01  2.747E+00  4.884E-04  7.160E-04 -9.037E-05
   1    4   80     1    80    1.1130E+00  6.2544E-04   1.1123E+00  0.000E+00  0.000E+00  0.000E+00  1.16931E+02  7.807E-01  2.747E+00  4.884E-04  7.089E-04 -8.347E-05
   1    4   81     1    81    1.1123E+00  6.2524E-04   1.1117E+00  0.000E+00  0.000E+00  0.000E+00  1.16630E+02  7.805E-01  2.746E+00  4.883E-04  6.718E-04 -4.652E-05
   1    4   82     1    82    1.1117E+00  6.2505E-04   1.1111E+00  0.000E+00  0.000E+00  0.000E+00  1.16330E+02  7.802E-01  2.746E+00  4.882E-04  6.735E-04 -4.847E-05
   1    4   83     1    83    1.1111E+00  6.2485E-04   1.1105E+00  0.000E+00  0.000E+00  0.000E+00  1.16030E+02  7.800E-01  2.746E+00  4.882E-04  6.755E-04 -5.060E-05
   1    4   84     1    84    1.1105E+00  6.2466E-04   1.1098E+00  0.000E+00  0.000E+00  0.000E+00  1.15730E+02  7.798E-01  2.745E+00  4.881E-04  6.776E-04 -5.298E-05
   1    4   85     1    85    1.1098E+00  6.2446E-04   1.1092E+00  0.000E+00  0.000E+00  0.000E+00  1.15430E+02  7.796E-01  2.745E+00  4.880E-04  6.801E-04 -5.565E-05
   1    4   86     1    86    1.1092E+00  6.2426E-04   1.1086E+00  0.000E+00  0.000E+00  0.000E+00  1.15129E+02  7.794E-01  2.745E+00  4.879E-04  6.829E-04 -5.860E-05
   1    4   87     1    87    1.1086E+00  6.2407E-04   1.1080E+00  0.000E+00  0.000E+00  0.000E+00  1.14829E+02  7.792E-01  2.745E+00  4.879E-04  6.859E-04 -6.186E-05
   1    4   88     1    88    1.1080E+00  6.2387E-04   1.1073E+00  0.000E+00  0.000E+00  0.000E+00  1.14529E+02  7.789E-01  2.744E+00  4.878E-04  6.893E-04 -6.544E-05
   1    4   89     1    89    1.1073E+00  6.2367E-04   1.1067E+00  0.000E+00  0.000E+00  0.000E+00  1.14229E+02  7.787E-01  2.744E+00  4.877E-04  6.930E-04 -6.937E-05
   1    4   90     1    90    1.1067E+00  6.2348E-04   1.1061E+00  0.000E+00  0.000E+00  0.000E+00  1.13929E+02  7.785E-01  2.744E+00  4.877E-04  6.971E-04 -7.367E-05
   1    4   91     1    91    1.1061E+00  6.2328E-04   1.1055E+00  0.000E+00  0.000E+00  0.000E+00  1.13628E+02  7.783E-01  2.744E+00  4.876E-04  7.016E-04 -7.834E-05
   1    4   92     1    92    1.1055E+00  6.2309E-04   1.1048E+00  0.000E+00  0.000E+00  0.000E+00  1.13328E+02  7.781E-01  2.743E+00  4.875E-04  7.065E-04 -8.342E-05
   1    4   93     1    93    1.1048E+00  6.2289E-04   1.1042E+00  0.000E+00  0.000E+00  0.000E+00  1.13028E+02  7.779E-01  2.743E+00  4.874E-04  7.118E-04 -8.892E-05
   1    4   94     1    94    1.1042E+00  6.2269E-04   1.1036E+00  0.000E+00  0.000E+00  0.000E+00  1.12728E+02  7.776E-01  2.743E+00  4.874E-04  7.175E-04 -9.486E-05
   1    4   95     1    95    1.1036E+00  6.2250E-04   1.1030E+00  0.000E+00  0.000E+00  0.000E+00  1.12427E+02  7.774E-01  2.743E+00  4.873E-04  7.237E-04 -1.013E-04
   1    4   96     1    96    1.1030E+00  6.2230E-04   1.1024E+00  0.000E+00  0.000E+00  0.000E+00  1.12127E+02  7.772E-01  2.742E+00  4.872E-04  7.304E-04 -1.081E-04
   1    4   97     1    97    1.1024E+00  6.2211E-04   1.1017E+00  0.000E+00  0.000E+00  0.000E+00  1.11827E+02  7.770E-01  2.742E+00  4.872E-04  7.375E-04 -1.154E-04
   1    4   98     1    98    1.1017E+00  6.2191E-04   1.1011E+00  0.000E+00  0.000E+00  0.000E+00  1.11527E+02  7.768E-01  2.742E+00  4.871E-04  7.451E-04 -1.232E-04
   1    4   99     1    99    1.1011E+00  6.2171E-04   1.1005E+00  0.000E+00  0.000E+00  0.000E+00  1.11227E+02  7.766E-01  2.742E+00  4.870E-04  7.530E-04 -1.312E-04
   1    4  100     1   100    1.1005E+00  6.2152E-04   1.0999E+00  0.000E+00  0.000E+00  0.000E+00  1.10926E+02  7.763E-01  2.741E+00  4.870E-04  7.610E-04 -1.395E-04



1
  VOLUMETRIC BUDGET FOR UNSATURATED ZONE BENEATH STREAMS AT END OF TIME STEP    30 STRESS PERIOD  24
  ------------------------------------------------------------------------------------------------

    CUMULATIVE VOLUMES             L**3    RATES FOR THIS TIME STEP         L**3/T
    ------------------                     ------------------------


          STREAM LOSS =     27217768.0000            STREAM LOSS =        6.3128E-02
    CHANGE IN STORAGE =      1240152.3750      CHANGE IN STORAGE =       -4.0234E-02
       RECHARGE TO GW =     25984298.0000         RECHARGE TO GW =            0.1034

             TOTAL IN =     27217768.0000               TOTAL IN =            0.1034

            TOTAL OUT =     27224450.0000              TOTAL OUT =            0.1034

             IN - OUT =        -6682.0000               IN - OUT =        2.2203E-06

  PERCENT DISCREPANCY =           -0.01      PERCENT DISCREPANCY =             0.00



1
  VOLUMETRIC BUDGET FOR ENTIRE MODEL AT END OF TIME STEP   30, STRESS PERIOD  24
  ------------------------------------------------------------------------------

     CUMULATIVE VOLUMES      L**3       RATES FOR THIS TIME STEP      L**3/T
     ------------------                 ------------------------

           IN:                                      IN:
           ---                                      ---
             STORAGE     =    87936080.0000               STORAGE     =           0.7499
       CONSTANT HEAD     =           0.0000         CONSTANT HEAD     =           0.0000
               WELLS     =           0.0000                 WELLS     =           0.0000
     HEAD DEP BOUNDS     =           0.0000       HEAD DEP BOUNDS     =           0.0000
      STREAM LEAKAGE     =    25984148.0000        STREAM LEAKAGE     =           0.1034

                TOTAL IN =   113920224.0000                  TOTAL IN =           0.8532

          OUT:                                     OUT:
          ----                                     ----
             STORAGE     =     3107308.7500               STORAGE     =       8.4713E-05
       CONSTANT HEAD     =           0.0000         CONSTANT HEAD     =           0.0000
               WELLS     =    94477232.0000                 WELLS     =           0.8285
     HEAD DEP BOUNDS     =    16335812.0000       HEAD DEP BOUNDS     =       2.4678E-02
      STREAM LEAKAGE     =           0.0000        STREAM LEAKAGE     =           0.0000

               TOTAL OUT =   113920352.0000                 TOTAL OUT =           0.8532

                IN - OUT =        -128.0000                  IN - OUT =      -5.9605E-08

     PERCENT DISCREPANCY =          -0.00         PERCENT DISCREPANCY =          -0.00






         TIME SUMMARY AT END OF TIME STEP   30 IN STRESS PERIOD   24
                    SECONDS     MINUTES      HOURS       DAYS        YEARS
                    -----------------------------------------------------------
   TIME STEP LENGTH 2.49961E+05  4166.0      69.434      2.8931     7.92080E-03
 STRESS PERIOD TIME 2.59200E+06  43200.      720.00      30.000     8.21355E-02
         TOTAL TIME 6.22080E+07 1.03680E+06  17280.      720.00      1.9713    
1
1
                            STRESS PERIOD NO.   25, LENGTH =   2592000.    
                            -----------------------------------------------

                              NUMBER OF TIME STEPS =    30

                               MULTIPLIER FOR DELT =     1.100

                            INITIAL TIME STEP SIZE =   15757.40    

 REUSING NON-PARAMETER WELLS FROM LAST STRESS PERIOD

      1 WELL 

 REUSING NON-PARAMETER GHB CELLS FROM LAST STRESS PERIOD

      7 GHB CELLS



 CLASSIFICATION & COUNT OF STREAM SEGMENTS BASED ON SOURCE OF INFLOW:

                HEADWATER     DIVERSION     RECEIVES TRIBUTARY FLOW
                ---------     ---------     -----------------------
                     1              0               0



                    INPUT DATA FOR EACH STREAM SEGMENT
 ---------------------------------------------------------------------------------------------

 SEGMENT    SEG.     INFLOW   OVERLAND   STREAM    STREAM   ICALC  OUTFLOW  DIVERSION PRIORITY
    NO.    LENGTH     RATE     RUNOFF      ET       PPT.    METH.  TO SEG.  FROM SEG.    NO.

      1  2.000E+04 3.290E-01 0.000E+00 0.000E+00 0.000E+00    2        0        0        0


         STREAMBED PROPERTIES AND STREAM DIMENSIONS

 SEGMENT     BED HYD. COND.      BED THICKNESS     ELEV.-TOP OF BED     WIDTH OF STREAM     DEPTH OF STREAM    STREAM ROUGHNESS
    No.     UPPER     LOWER     UPPER     LOWER     UPPER     LOWER     UPPER     LOWER     UPPER     LOWER   CHANNEL      BANK

     1  3.500E-07 3.500E-07                                                                                 3.000E-02 4.000E-02

  EIGHT POINT CROSS-SECTION DATA FOR SEGMENTS WITH ICALC = 2
    X VALUES X VALUES START FROM LEFT SIDE LOOKING DOWNSTREAM

     SEGMENT NO.        X1        X2        X3        X4        X5        X6        X7        X8
            1      0.000E+00 2.000E+00 4.000E+00 6.000E+00 8.000E+00 1.000E+01 1.200E+01 1.400E+01

    Z VALUES ARE RELATIVE TO STREAMBED ELEVATION

     SEGMENT NO.          Z1        Z2        Z3        Z4        Z5        Z6        Z7        Z8
            1      6.000E+00 4.500E+00 3.500E+00 0.000E+00 3.000E-01 3.500E+00 4.500E+00 6.000E+00



 
 SOLVING FOR HEAD 
                                                   Max.-Head-Change                         Max.-Flux-Residual
  Residual-Control   Outer-Iter.   Inner-Iter.     Column Row Layer    Maximum-Head-Change  Column Row Layer    Maximum-Flux-Residual          L2-NORM 
          0                 1           2            50    3     1      -0.8899713605E+00      50    3    1        -0.3114420826E+00      0.4064573281E+00
          0                 2           2            50    3     1       0.1030077843E+00      50    3    1         0.3803521522E-01      0.4746761677E-01
          0                 3           2            50    3     1      -0.9001427739E-02      50    3    1        -0.3353060353E-02      0.4210160026E-02
          0                 4           2            50    3     1       0.7147013784E-03      50    3    1         0.2691412402E-03      0.3379259416E-03
          0                 5           1            50    3     1      -0.4973959919E-04      50    3    1        -0.1891682854E-04      0.2375952009E-04
          0                 6           1            50    3     1       0.2985695659E-05      50    3    1         0.1146302129E-05      0.1439947344E-05
          0                 7           1            50    3     1      -0.1508438234E-06      50    3    1        -0.5844998840E-07      0.7342667281E-07

    ------------------------------------------------
       NWT REQUIRED            7 OUTER ITERATIONS 
       AND A TOTAL OF         11 INNER ITERATIONS.
    ------------------------------------------------

 NO OUTPUT CONTROL FOR STRESS PERIOD   25   TIME STEP    1
 
 WELLS WITH REDUCED PUMPING FOR STRESS PERIOD    25 TIME STEP     1
   LAY   ROW   COL         APPL.Q          ACT.Q        GW-HEAD       CELL-BOT
     1     3    50  -0.928760E+00  -0.679724E+00   0.739245E+01   0.000000E+00
     1     5    55  -0.928760E+00  -0.557623E+00   0.629745E+01   0.000000E+00
 
 
 SOLVING FOR HEAD 
                                                   Max.-Head-Change                         Max.-Flux-Residual
  Residual-Control   Outer-Iter.   Inner-Iter.     Column Row Layer    Maximum-Head-Change  Column Row Layer    Maximum-Flux-Residual          L2-NORM 
          0                 1           2            50    3     1      -0.5481444231E+00      50    3    1        -0.1825614217E+00      0.2389038588E+00
          0                 2           2            50    3     1       0.5757765715E-01      50    3    1         0.1995356086E-01      0.2533754810E-01
          0                 3           2            50    3     1      -0.5058420308E-02      50    3    1        -0.1781134482E-02      0.2269790134E-02
          0                 4           2            50    3     1       0.3998981778E-03      50    3    1         0.1427889618E-03      0.1821481935E-03
          0                 5           1            50    3     1      -0.2778385356E-04      50    3    1        -0.1003716474E-04      0.1281605143E-04
          0                 6           1            50    3     1       0.1666297354E-05      50    3    1         0.6082159527E-06      0.7769888209E-06
          0                 7           1            50    3     1      -0.8415583027E-07      50    3    1        -0.3101296142E-07      0.3962660170E-07

    ------------------------------------------------
       NWT REQUIRED            7 OUTER ITERATIONS 
       AND A TOTAL OF         11 INNER ITERATIONS.
    ------------------------------------------------

 NO OUTPUT CONTROL FOR STRESS PERIOD   25   TIME STEP    2
 
 WELLS WITH REDUCED PUMPING FOR STRESS PERIOD    25 TIME STEP     2
   LAY   ROW   COL         APPL.Q          ACT.Q        GW-HEAD       CELL-BOT
     1     3    50  -0.929939E+00  -0.623639E+00   0.689720E+01   0.000000E+00
     1     5    55  -0.929939E+00  -0.508940E+00   0.590036E+01   0.000000E+00
 
 
 SOLVING FOR HEAD 
                                                   Max.-Head-Change                         Max.-Flux-Residual
  Residual-Control   Outer-Iter.   Inner-Iter.     Column Row Layer    Maximum-Head-Change  Column Row Layer    Maximum-Flux-Residual          L2-NORM 
          0                 1           2            50    3     1      -0.3345756307E+00      50    3    1        -0.1029536891E+00      0.1404583122E+00
          0                 2           2            50    3     1       0.3346679625E-01      50    3    1         0.1071046850E-01      0.1418354756E-01
          0                 3           2            50    3     1      -0.2932986363E-02      50    3    1        -0.9606070830E-03      0.1273123704E-02
          0                 4           2            50    3     1       0.2308176047E-03      50    3    1         0.7697225631E-04      0.1022256245E-03
          0                 5           1            50    3     1      -0.1599828091E-04      50    3    1        -0.5410897852E-05      0.7201349516E-05
          0                 6           1            50    3     1       0.9582466825E-06      50    3    1         0.3278792258E-06      0.4369265868E-06

    ------------------------------------------------
       NWT REQUIRED            6 OUTER ITERATIONS 
       AND A TOTAL OF         10 INNER ITERATIONS.
    ------------------------------------------------

 NO OUTPUT CONTROL FOR STRESS PERIOD   25   TIME STEP    3
 
 WELLS WITH REDUCED PUMPING FOR STRESS PERIOD    25 TIME STEP     3
   LAY   ROW   COL         APPL.Q          ACT.Q        GW-HEAD       CELL-BOT
     1     3    50  -0.930075E+00  -0.587477E+00   0.659337E+01   0.000000E+00
     1     5    55  -0.930075E+00  -0.478772E+00   0.565929E+01   0.000000E+00
 
 
 SOLVING FOR HEAD 
                                                   Max.-Head-Change                         Max.-Flux-Residual
  Residual-Control   Outer-Iter.   Inner-Iter.     Column Row Layer    Maximum-Head-Change  Column Row Layer    Maximum-Flux-Residual          L2-NORM 
          0                 1           2            50    3     1      -0.2061105653E+00      50    3    1        -0.5728854883E-01      0.8766007849E-01
          0                 2           2            50    3     1       0.2004441916E-01      50    3    1         0.5841098799E-02      0.8593181925E-02
          0                 3           2            50    3     1      -0.1747138260E-02      50    3    1        -0.5248507576E-03      0.7713374805E-03
          0                 4           2            50    3     1       0.1368312285E-03      50    3    1         0.4204757861E-04      0.6205808864E-04
          0                 5           1            50    3     1      -0.9456492964E-05      50    3    1        -0.2955858129E-05      0.4382007320E-05
          0                 6           1            50    3     1       0.5654816215E-06      50    3    1         0.1791121567E-06      0.2662902756E-06

    ------------------------------------------------
       NWT REQUIRED            6 OUTER ITERATIONS 
       AND A TOTAL OF         10 INNER ITERATIONS.
    ------------------------------------------------

 NO OUTPUT CONTROL FOR STRESS PERIOD   25   TIME STEP    4
 
 WELLS WITH REDUCED PUMPING FOR STRESS PERIOD    25 TIME STEP     4
   LAY   ROW   COL         APPL.Q          ACT.Q        GW-HEAD       CELL-BOT
     1     3    50  -0.929951E+00  -0.564629E+00   0.640568E+01   0.000000E+00
     1     5    55  -0.929951E+00  -0.460194E+00   0.551195E+01   0.000000E+00
 
 
 SOLVING FOR HEAD 
                                                   Max.-Head-Change                         Max.-Flux-Residual
  Residual-Control   Outer-Iter.   Inner-Iter.     Column Row Layer    Maximum-Head-Change  Column Row Layer    Maximum-Flux-Residual          L2-NORM 
          0                 1           2            50    3     1      -0.1311935144E+00      50    3    1        -0.3228476332E-01      0.6167154339E-01
          0                 2           2            50    3     1       0.1252090869E-01      50    3    1         0.3268877473E-02      0.5944139324E-02
          0                 3           2            50    3     1      -0.1083373552E-02      50    3    1        -0.2939167350E-03      0.5349874894E-03
          0                 4           1            50    3     1       0.8438007641E-04      50    3    1         0.2354500440E-04      0.4324030005E-04
          0                 5           1            50    3     1      -0.5810654150E-05      50    3    1        -0.1655139581E-05      0.3065840002E-05
          0                 6           1            50    3     1       0.3467199078E-06      50    3    1         0.1002928264E-06      0.1868246955E-06

    ------------------------------------------------
       NWT REQUIRED            6 OUTER ITERATIONS 
       AND A TOTAL OF          9 INNER ITERATIONS.
    ------------------------------------------------

 NO OUTPUT CONTROL FOR STRESS PERIOD   25   TIME STEP    5
 
 WELLS WITH REDUCED PUMPING FOR STRESS PERIOD    25 TIME STEP     5
   LAY   ROW   COL         APPL.Q          ACT.Q        GW-HEAD       CELL-BOT
     1     3    50  -0.930064E+00  -0.550055E+00   0.628601E+01   0.000000E+00
     1     5    55  -0.930064E+00  -0.448581E+00   0.541908E+01   0.000000E+00
 
 
 SOLVING FOR HEAD 
                                                   Max.-Head-Change                         Max.-Flux-Residual
  Residual-Control   Outer-Iter.   Inner-Iter.     Column Row Layer    Maximum-Head-Change  Column Row Layer    Maximum-Flux-Residual          L2-NORM 
          0                 1           2            50    2     1      -0.9758881498E-01      50    3    1        -0.1860566998E-01      0.4928322618E-01
          0                 2           2            50    2     1       0.9587130055E-02      50    3    1         0.1881582146E-02      0.4728434985E-02
          0                 3           2            50    2     1      -0.8521559992E-03      50    3    1        -0.1692014139E-03      0.4284363671E-03
          0                 4           1            50    2     1       0.6748420658E-04      50    3    1         0.1355411392E-04      0.3486794650E-04
          0                 5           1            50    2     1      -0.4694616812E-05      50    3    1        -0.9527896233E-06      0.2485029424E-05
          0                 6           1            50    2     1       0.2816798904E-06      50    3    1         0.5773271017E-07      0.1519388853E-06

    ------------------------------------------------
       NWT REQUIRED            6 OUTER ITERATIONS 
       AND A TOTAL OF          9 INNER ITERATIONS.
    ------------------------------------------------

 NO OUTPUT CONTROL FOR STRESS PERIOD   25   TIME STEP    6
 
 WELLS WITH REDUCED PUMPING FOR STRESS PERIOD    25 TIME STEP     6
   LAY   ROW   COL         APPL.Q          ACT.Q        GW-HEAD       CELL-BOT
     1     3    50  -0.929947E+00  -0.540205E+00   0.620641E+01   0.000000E+00
     1     5    55  -0.929947E+00  -0.440865E+00   0.535809E+01   0.000000E+00
 
 
 SOLVING FOR HEAD 
                                                   Max.-Head-Change                         Max.-Flux-Residual
  Residual-Control   Outer-Iter.   Inner-Iter.     Column Row Layer    Maximum-Head-Change  Column Row Layer    Maximum-Flux-Residual          L2-NORM 
          0                 1           2            50    2     1      -0.8719384808E-01      50    2    1        -0.1259582483E-01      0.4333585432E-01
          0                 2           2            50    2     1       0.8553931348E-02      50    2    1         0.1251806692E-02      0.4173195550E-02
          0                 3           2            50    2     1      -0.7603459760E-03      50    2    1        -0.1127419125E-03      0.3806753867E-03
          0                 4           1            50    2     1       0.6021044926E-04      50    2    1         0.9029974930E-05      0.3117054510E-04
          0                 5           1            50    2     1      -0.4188382475E-05      50    2    1        -0.6348026889E-06      0.2232520232E-05
          0                 6           1            50    2     1       0.2512898637E-06      50    2    1         0.3846651381E-07      0.1369904136E-06

    ------------------------------------------------
       NWT REQUIRED            6 OUTER ITERATIONS 
       AND A TOTAL OF          9 INNER ITERATIONS.
    ------------------------------------------------

 NO OUTPUT CONTROL FOR STRESS PERIOD   25   TIME STEP    7
 
 WELLS WITH REDUCED PUMPING FOR STRESS PERIOD    25 TIME STEP     7
   LAY   ROW   COL         APPL.Q          ACT.Q        GW-HEAD       CELL-BOT
     1     3    50  -0.930027E+00  -0.533282E+00   0.614986E+01   0.000000E+00
     1     5    55  -0.930027E+00  -0.435531E+00   0.531528E+01   0.000000E+00
 
 
 SOLVING FOR HEAD 
                                                   Max.-Head-Change                         Max.-Flux-Residual
  Residual-Control   Outer-Iter.   Inner-Iter.     Column Row Layer    Maximum-Head-Change  Column Row Layer    Maximum-Flux-Residual          L2-NORM 
          0                 1           2            50    2     1      -0.7791920910E-01      50    2    1        -0.1023246192E-01      0.4010265844E-01
          0                 2           2            50    2     1       0.7630596617E-02      50    2    1         0.1016566195E-02      0.3874491932E-02
          0                 3           2            50    2     1      -0.6784877311E-03      50    2    1        -0.9155911209E-04      0.3559896149E-03
          0                 4           1            50    2     1       0.5374031054E-04      50    2    1         0.7333329679E-05      0.2931513039E-04
          0                 5           1            50    2     1      -0.3738766726E-05      50    2    1        -0.5155295257E-06      0.2109108755E-05
          0                 6           1            50    2     1       0.2243244333E-06      50    2    1         0.3123903430E-07      0.1298627469E-06

    ------------------------------------------------
       NWT REQUIRED            6 OUTER ITERATIONS 
       AND A TOTAL OF          9 INNER ITERATIONS.
    ------------------------------------------------

 NO OUTPUT CONTROL FOR STRESS PERIOD   25   TIME STEP    8
 
 WELLS WITH REDUCED PUMPING FOR STRESS PERIOD    25 TIME STEP     8
   LAY   ROW   COL         APPL.Q          ACT.Q        GW-HEAD       CELL-BOT
     1     3    50  -0.930039E+00  -0.528017E+00   0.610715E+01   0.000000E+00
     1     5    55  -0.930039E+00  -0.431518E+00   0.528324E+01   0.000000E+00
 
 
 SOLVING FOR HEAD 
                                                   Max.-Head-Change                         Max.-Flux-Residual
  Residual-Control   Outer-Iter.   Inner-Iter.     Column Row Layer    Maximum-Head-Change  Column Row Layer    Maximum-Flux-Residual          L2-NORM 
          0                 1           2            50    2     1      -0.7007719243E-01      50    2    1        -0.8314248315E-02      0.3810920838E-01
          0                 2           2            50    2     1       0.6858898151E-02      50    2    1         0.8261855371E-03      0.3699922441E-02
          0                 3           2            50    2     1      -0.6093096450E-03      50    2    1        -0.7441004703E-04      0.3414144990E-03
          0                 4           1            50    2     1       0.4825315457E-04      50    2    1         0.5959808778E-05      0.2824485763E-04
          0                 5           1            50    2     1      -0.3357451653E-05      50    2    1        -0.4189715728E-06      0.2040689941E-05
          0                 6           1            50    2     1       0.2014883853E-06      50    2    1         0.2538800728E-07      0.1260846096E-06

    ------------------------------------------------
       NWT REQUIRED            6 OUTER ITERATIONS 
       AND A TOTAL OF          9 INNER ITERATIONS.
    ------------------------------------------------

 NO OUTPUT CONTROL FOR STRESS PERIOD   25   TIME STEP    9
 
 WELLS WITH REDUCED PUMPING FOR STRESS PERIOD    25 TIME STEP     9
   LAY   ROW   COL         APPL.Q          ACT.Q        GW-HEAD       CELL-BOT
     1     3    50  -0.929962E+00  -0.523777E+00   0.607321E+01   0.000000E+00
     1     5    55  -0.929962E+00  -0.428324E+00   0.525804E+01   0.000000E+00
 
 
 SOLVING FOR HEAD 
                                                   Max.-Head-Change                         Max.-Flux-Residual
  Residual-Control   Outer-Iter.   Inner-Iter.     Column Row Layer    Maximum-Head-Change  Column Row Layer    Maximum-Flux-Residual          L2-NORM 
          0                 1           2            50    1     1      -0.6748535852E-01      50    2    1        -0.6798018047E-02      0.3681165265E-01
          0                 2           2            50    1     1       0.6657396974E-02      50    2    1         0.6758928078E-03      0.3581340321E-02
          0                 3           2            50    1     1      -0.5932883649E-03      50    2    1        -0.6087041907E-04      0.3314827472E-03
          0                 4           1            50    1     1       0.4706759345E-04      50    2    1         0.4875393583E-05      0.2754402837E-04
          0                 5           1            50    1     1      -0.3277306869E-05      50    2    1        -0.3427375372E-06      0.1998764142E-05
          0                 6           1            50    1     1       0.1967273914E-06      50    2    1         0.2076852987E-07      0.1239609112E-06

    ------------------------------------------------
       NWT REQUIRED            6 OUTER ITERATIONS 
       AND A TOTAL OF          9 INNER ITERATIONS.
    ------------------------------------------------

 NO OUTPUT CONTROL FOR STRESS PERIOD   25   TIME STEP   10
 
 WELLS WITH REDUCED PUMPING FOR STRESS PERIOD    25 TIME STEP    10
   LAY   ROW   COL         APPL.Q          ACT.Q        GW-HEAD       CELL-BOT
     1     3    50  -0.930022E+00  -0.520250E+00   0.604442E+01   0.000000E+00
     1     5    55  -0.930022E+00  -0.425703E+00   0.523690E+01   0.000000E+00
 
 
 SOLVING FOR HEAD 
                                                   Max.-Head-Change                         Max.-Flux-Residual
  Residual-Control   Outer-Iter.   Inner-Iter.     Column Row Layer    Maximum-Head-Change  Column Row Layer    Maximum-Flux-Residual          L2-NORM 
          0                 1           2            50    1     1      -0.6587346036E-01      50    1    1        -0.5946966976E-02      0.3586472279E-01
          0                 2           2            50    1     1       0.6489432377E-02      50    1    1         0.5927668439E-03      0.3494101821E-02
          0                 3           2            50    1     1      -0.5783327267E-03      50    1    1        -0.5336854535E-04      0.3244461358E-03
          0                 4           1            50    1     1       0.4589103947E-04      50    1    1         0.4274664720E-05      0.2706707566E-04
          0                 5           1            50    1     1      -0.3195613094E-05      50    1    1        -0.3003743120E-06      0.1972197685E-05
          0                 6           1            50    1     1       0.1918227070E-06      50    1    1         0.1819394263E-07      0.1227725017E-06

    ------------------------------------------------
       NWT REQUIRED            6 OUTER ITERATIONS 
       AND A TOTAL OF          9 INNER ITERATIONS.
    ------------------------------------------------

 NO OUTPUT CONTROL FOR STRESS PERIOD   25   TIME STEP   11
 
 WELLS WITH REDUCED PUMPING FOR STRESS PERIOD    25 TIME STEP    11
   LAY   ROW   COL         APPL.Q          ACT.Q        GW-HEAD       CELL-BOT
     1     3    50  -0.930031E+00  -0.517155E+00   0.601938E+01   0.000000E+00
     1     5    55  -0.930031E+00  -0.423382E+00   0.521834E+01   0.000000E+00
 
 
 SOLVING FOR HEAD 
                                                   Max.-Head-Change                         Max.-Flux-Residual
  Residual-Control   Outer-Iter.   Inner-Iter.     Column Row Layer    Maximum-Head-Change  Column Row Layer    Maximum-Flux-Residual          L2-NORM 
          0                 1           2            50    1     1      -0.6359397919E-01      50    1    1        -0.5277926006E-02      0.3515271276E-01
          0                 2           2            50    1     1       0.6261247887E-02      50    1    1         0.5258615099E-03      0.3426269595E-02
          0                 3           2            50    1     1      -0.5578669979E-03      50    1    1        -0.4734698101E-04      0.3188259429E-03
          0                 4           1            50    1     1       0.4426175230E-04      50    1    1         0.3792337883E-05      0.2671037046E-04
          0                 5           1            50    1     1      -0.3081574612E-05      50    1    1        -0.2664283530E-06      0.1954856939E-05
          0                 6           1            50    1     1       0.1849492648E-06      50    1    1         0.1613480088E-07      0.1221864913E-06

    ------------------------------------------------
       NWT REQUIRED            6 OUTER ITERATIONS 
       AND A TOTAL OF          9 INNER ITERATIONS.
    ------------------------------------------------

 NO OUTPUT CONTROL FOR STRESS PERIOD   25   TIME STEP   12
 
 WELLS WITH REDUCED PUMPING FOR STRESS PERIOD    25 TIME STEP    12
   LAY   ROW   COL         APPL.Q          ACT.Q        GW-HEAD       CELL-BOT
     1     3    50  -0.929964E+00  -0.514366E+00   0.599716E+01   0.000000E+00
     1     5    55  -0.929964E+00  -0.421253E+00   0.520158E+01   0.000000E+00
 
 
 SOLVING FOR HEAD 
                                                   Max.-Head-Change                         Max.-Flux-Residual
  Residual-Control   Outer-Iter.   Inner-Iter.     Column Row Layer    Maximum-Head-Change  Column Row Layer    Maximum-Flux-Residual          L2-NORM 
          0                 1           2            50    1     1      -0.6094889976E-01      50    1    1        -0.4632337821E-02      0.3460912146E-01
          0                 2           2            50    1     1       0.5995988476E-02      50    1    1         0.4614463264E-03      0.3372581767E-02
          0                 3           2            50    1     1      -0.5340216120E-03      50    1    1        -0.4154818634E-04      0.3144112244E-03
          0                 4           1            50    1     1       0.4236204306E-04      50    1    1         0.3327865518E-05      0.2644607324E-04
          0                 5           1            50    1     1      -0.2948506130E-05      50    1    1        -0.2337305953E-06      0.1944027506E-05
          0                 6           1            50    1     1       0.1769251718E-06      50    1    1         0.1415094864E-07      0.1220159880E-06

    ------------------------------------------------
       NWT REQUIRED            6 OUTER ITERATIONS 
       AND A TOTAL OF          9 INNER ITERATIONS.
    ------------------------------------------------

 NO OUTPUT CONTROL FOR STRESS PERIOD   25   TIME STEP   13
 
 WELLS WITH REDUCED PUMPING FOR STRESS PERIOD    25 TIME STEP    13
   LAY   ROW   COL         APPL.Q          ACT.Q        GW-HEAD       CELL-BOT
     1     3    50  -0.929972E+00  -0.511792E+00   0.597637E+01   0.000000E+00
     1     5    55  -0.929972E+00  -0.419285E+00   0.518583E+01   0.000000E+00
 
 
 SOLVING FOR HEAD 
                                                   Max.-Head-Change                         Max.-Flux-Residual
  Residual-Control   Outer-Iter.   Inner-Iter.     Column Row Layer    Maximum-Head-Change  Column Row Layer    Maximum-Flux-Residual          L2-NORM 
          0                 1           2            50    1     1      -0.5817552849E-01      50    1    1        -0.4036367099E-02      0.3417850387E-01
          0                 2           2            50    1     1       0.5718285203E-02      50    1    1         0.4020624072E-03      0.3329414396E-02
          0                 3           2            50    1     1      -0.5090280020E-03      50    1    1        -0.3620153778E-04      0.3109310755E-03
          0                 4           1            50    1     1       0.4036914133E-04      50    1    1         0.2899615406E-05      0.2625713427E-04
          0                 5           1            50    1     1      -0.2808708929E-05      50    1    1        -0.2035719776E-06      0.1938516236E-05
          0                 6           1            50    1     1       0.1684870844E-06      50    1    1         0.1232060853E-07      0.1221759396E-06

    ------------------------------------------------
       NWT REQUIRED            6 OUTER ITERATIONS 
       AND A TOTAL OF          9 INNER ITERATIONS.
    ------------------------------------------------

 NO OUTPUT CONTROL FOR STRESS PERIOD   25   TIME STEP   14
 
 WELLS WITH REDUCED PUMPING FOR STRESS PERIOD    25 TIME STEP    14
   LAY   ROW   COL         APPL.Q          ACT.Q        GW-HEAD       CELL-BOT
     1     3    50  -0.930020E+00  -0.509352E+00   0.595649E+01   0.000000E+00
     1     5    55  -0.930020E+00  -0.417416E+00   0.517071E+01   0.000000E+00
 
 
 SOLVING FOR HEAD 
                                                   Max.-Head-Change                         Max.-Flux-Residual
  Residual-Control   Outer-Iter.   Inner-Iter.     Column Row Layer    Maximum-Head-Change  Column Row Layer    Maximum-Flux-Residual          L2-NORM 
          0                 1           2            50    1     1      -0.5543924089E-01      50    1    1        -0.3502733979E-02      0.3382329192E-01
          0                 2           2            50    1     1       0.5443812989E-02      50    1    1         0.3489295213E-03      0.3294166342E-02
          0                 3           2            50    1     1      -0.4842525285E-03      50    1    1        -0.3141732706E-04      0.3081178963E-03
          0                 4           1            50    1     1       0.3838929704E-04      50    1    1         0.2516417790E-05      0.2611631646E-04
          0                 5           1            50    1     1      -0.2669453318E-05      50    1    1        -0.1765725735E-06      0.1936113157E-05
          0                 6           1            50    1     1       0.1600670932E-06      50    1    1         0.1068133276E-07      0.1225273573E-06

    ------------------------------------------------
       NWT REQUIRED            6 OUTER ITERATIONS 
       AND A TOTAL OF          9 INNER ITERATIONS.
    ------------------------------------------------

 NO OUTPUT CONTROL FOR STRESS PERIOD   25   TIME STEP   15
 
 WELLS WITH REDUCED PUMPING FOR STRESS PERIOD    25 TIME STEP    15
   LAY   ROW   COL         APPL.Q          ACT.Q        GW-HEAD       CELL-BOT
     1     3    50  -0.930020E+00  -0.506982E+00   0.593738E+01   0.000000E+00
     1     5    55  -0.930020E+00  -0.415593E+00   0.515614E+01   0.000000E+00
 
 
 SOLVING FOR HEAD 
                                                   Max.-Head-Change                         Max.-Flux-Residual
  Residual-Control   Outer-Iter.   Inner-Iter.     Column Row Layer    Maximum-Head-Change  Column Row Layer    Maximum-Flux-Residual          L2-NORM 
          0                 1           2            50    1     1      -0.5286592457E-01      50    1    1        -0.3034815698E-02      0.3352637540E-01
          0                 2           2            50    1     1       0.5184856609E-02      50    1    1         0.3023600613E-03      0.3264605908E-02
          0                 3           2            50    1     1      -0.4607938076E-03      50    1    1        -0.2722390957E-04      0.3058296877E-03
          0                 4           1            50    1     1       0.3650986787E-04      50    1    1         0.2180542021E-05      0.2601711624E-04
          0                 5           1            50    1     1      -0.2536785093E-05      50    1    1        -0.1528910560E-06      0.1936397901E-05
          0                 6           1            50    1     1       0.1520261642E-06      50    1    1         0.9242708099E-08      0.1230318543E-06

    ------------------------------------------------
       NWT REQUIRED            6 OUTER ITERATIONS 
       AND A TOTAL OF          9 INNER ITERATIONS.
    ------------------------------------------------

 NO OUTPUT CONTROL FOR STRESS PERIOD   25   TIME STEP   16
 
 WELLS WITH REDUCED PUMPING FOR STRESS PERIOD    25 TIME STEP    16
   LAY   ROW   COL         APPL.Q          ACT.Q        GW-HEAD       CELL-BOT
     1     3    50  -0.930020E+00  -0.504660E+00   0.591868E+01   0.000000E+00
     1     5    55  -0.930020E+00  -0.413805E+00   0.514184E+01   0.000000E+00
 
 
 SOLVING FOR HEAD 
                                                   Max.-Head-Change                         Max.-Flux-Residual
  Residual-Control   Outer-Iter.   Inner-Iter.     Column Row Layer    Maximum-Head-Change  Column Row Layer    Maximum-Flux-Residual          L2-NORM 
          0                 1           2            50    1     1      -0.5053650366E-01      50    1    1        -0.2631156930E-02      0.3327741083E-01
          0                 2           2            50    1     1       0.4948894496E-02      50    1    1         0.2621926724E-03      0.3239122233E-02
          0                 3           2            50    1     1      -0.4393251152E-03      50    1    1        -0.2360692001E-04      0.3038468603E-03
          0                 4           1            50    1     1       0.3478458352E-04      50    1    1         0.1890836254E-05      0.2593819581E-04
          0                 5           1            50    1     1      -0.2414376117E-05      50    1    1        -0.1324460678E-06      0.1937744463E-05
          0                 6           1            50    1     1       0.1445801447E-06      73    4    1        -0.9099917264E-08      0.1235917339E-06

    ------------------------------------------------
       NWT REQUIRED            6 OUTER ITERATIONS 
       AND A TOTAL OF          9 INNER ITERATIONS.
    ------------------------------------------------

 NO OUTPUT CONTROL FOR STRESS PERIOD   25   TIME STEP   17
 
 WELLS WITH REDUCED PUMPING FOR STRESS PERIOD    25 TIME STEP    17
   LAY   ROW   COL         APPL.Q          ACT.Q        GW-HEAD       CELL-BOT
     1     3    50  -0.929989E+00  -0.502362E+00   0.590030E+01   0.000000E+00
     1     5    55  -0.929989E+00  -0.412014E+00   0.512762E+01   0.000000E+00
 
 
 SOLVING FOR HEAD 
                                                   Max.-Head-Change                         Max.-Flux-Residual
  Residual-Control   Outer-Iter.   Inner-Iter.     Column Row Layer    Maximum-Head-Change  Column Row Layer    Maximum-Flux-Residual          L2-NORM 
          0                 1           2            51    1     1      -0.5014715714E-01      50    1    1        -0.2286884625E-02      0.3306304324E-01
          0                 2           2            51    1     1       0.4886726993E-02      50    1    1         0.2279358334E-03      0.3217791819E-02
          0                 3           2            51    1     1      -0.4328720758E-03      50    1    1        -0.2052215185E-04      0.3022539235E-03
          0                 4           1            51    1     1       0.3425830967E-04      50    1    1         0.1643759337E-05      0.2588845934E-04
          0                 5           1            51    1     1      -0.2380438116E-05      73    4    1         0.1322849208E-06      0.1940581221E-05
          0                 6           1            51    1     1       0.1426958208E-06      73    4    1        -0.9369482967E-08      0.1242135291E-06

    ------------------------------------------------
       NWT REQUIRED            6 OUTER ITERATIONS 
       AND A TOTAL OF          9 INNER ITERATIONS.
    ------------------------------------------------

 NO OUTPUT CONTROL FOR STRESS PERIOD   25   TIME STEP   18
 
 WELLS WITH REDUCED PUMPING FOR STRESS PERIOD    25 TIME STEP    18
   LAY   ROW   COL         APPL.Q          ACT.Q        GW-HEAD       CELL-BOT
     1     3    50  -0.929984E+00  -0.500098E+00   0.588210E+01   0.000000E+00
     1     5    55  -0.929984E+00  -0.410215E+00   0.511323E+01   0.000000E+00
 
 
 SOLVING FOR HEAD 
                                                   Max.-Head-Change                         Max.-Flux-Residual
  Residual-Control   Outer-Iter.   Inner-Iter.     Column Row Layer    Maximum-Head-Change  Column Row Layer    Maximum-Flux-Residual          L2-NORM 
          0                 1           2            51    1     1      -0.5100089886E-01      51    1    1        -0.2063927775E-02      0.3286505074E-01
          0                 2           2            51    1     1       0.4957626905E-02      51    1    1         0.2058998276E-03      0.3199058830E-02
          0                 3           2            51    1     1      -0.4384652421E-03      51    1    1        -0.1853697329E-04      0.3008075435E-03
          0                 4           1            51    1     1       0.3466813789E-04      51    1    1         0.1484759891E-05      0.2584055746E-04
          0                 5           1            51    1     1      -0.2406177145E-05      73    4    1         0.1350262302E-06      0.1942585643E-05
          0                 6           1            51    1     1       0.1441251786E-06      76    4    1        -0.9659702371E-08      0.1247461084E-06

    ------------------------------------------------
       NWT REQUIRED            6 OUTER ITERATIONS 
       AND A TOTAL OF          9 INNER ITERATIONS.
    ------------------------------------------------

 NO OUTPUT CONTROL FOR STRESS PERIOD   25   TIME STEP   19
 
 WELLS WITH REDUCED PUMPING FOR STRESS PERIOD    25 TIME STEP    19
   LAY   ROW   COL         APPL.Q          ACT.Q        GW-HEAD       CELL-BOT
     1     3    50  -0.929980E+00  -0.497843E+00   0.586397E+01   0.000000E+00
     1     5    55  -0.929980E+00  -0.408404E+00   0.509874E+01   0.000000E+00
 
 
 SOLVING FOR HEAD 
                                                   Max.-Head-Change                         Max.-Flux-Residual
  Residual-Control   Outer-Iter.   Inner-Iter.     Column Row Layer    Maximum-Head-Change  Column Row Layer    Maximum-Flux-Residual          L2-NORM 
          0                 1           2            51    1     1      -0.5187153747E-01      51    1    1        -0.1908680189E-02      0.3269920716E-01
          0                 2           2            51    1     1       0.5027842331E-02      51    1    1         0.1903882191E-03      0.3180724226E-02
          0                 3           2            51    1     1      -0.4437777787E-03      51    1    1        -0.1714090286E-04      0.2993479238E-03
          0                 4           1            51    1     1       0.3504212869E-04      72    4    1        -0.1491319008E-05      0.2579253290E-04
          0                 5           1            51    1     1      -0.2428147095E-05      72    4    1         0.1382464472E-06      0.1944009995E-05
          0                 6           1            51    1     1       0.1452755961E-06      72    4    1        -0.9955718028E-08      0.1252057792E-06

    ------------------------------------------------
       NWT REQUIRED            6 OUTER ITERATIONS 
       AND A TOTAL OF          9 INNER ITERATIONS.
    ------------------------------------------------

 NO OUTPUT CONTROL FOR STRESS PERIOD   25   TIME STEP   20
 
 WELLS WITH REDUCED PUMPING FOR STRESS PERIOD    25 TIME STEP    20
   LAY   ROW   COL         APPL.Q          ACT.Q        GW-HEAD       CELL-BOT
     1     3    50  -0.930011E+00  -0.495597E+00   0.584576E+01   0.000000E+00
     1     5    55  -0.930011E+00  -0.406583E+00   0.508405E+01   0.000000E+00
 
 
 SOLVING FOR HEAD 
                                                   Max.-Head-Change                         Max.-Flux-Residual
  Residual-Control   Outer-Iter.   Inner-Iter.     Column Row Layer    Maximum-Head-Change  Column Row Layer    Maximum-Flux-Residual          L2-NORM 
          0                 1           2            51    1     1      -0.5282218420E-01      51    1    1        -0.1765249695E-02      0.3254202086E-01
          0                 2           2            51    1     1       0.5105441352E-02      51    1    1         0.1760717124E-03      0.3165650165E-02
          0                 3           2            51    1     1      -0.4496854277E-03      51    1    1        -0.1585225607E-04      0.2981983454E-03
          0                 4           1            51    1     1       0.3545766895E-04      72    4    1        -0.1512909018E-05      0.2576532877E-04
          0                 5           1            51    1     1      -0.2451772217E-05      72    4    1         0.1410798482E-06      0.1945725770E-05
          0                 6           1            51    1     1       0.1464666287E-06      72    4    1        -0.1021997775E-07      0.1256175488E-06

    ------------------------------------------------
       NWT REQUIRED            6 OUTER ITERATIONS 
       AND A TOTAL OF          9 INNER ITERATIONS.
    ------------------------------------------------

 NO OUTPUT CONTROL FOR STRESS PERIOD   25   TIME STEP   21
 
 WELLS WITH REDUCED PUMPING FOR STRESS PERIOD    25 TIME STEP    21
   LAY   ROW   COL         APPL.Q          ACT.Q        GW-HEAD       CELL-BOT
     1     3    50  -0.930000E+00  -0.493309E+00   0.582741E+01   0.000000E+00
     1     5    55  -0.930000E+00  -0.404705E+00   0.506903E+01   0.000000E+00
 
 
 SOLVING FOR HEAD 
                                                   Max.-Head-Change                         Max.-Flux-Residual
  Residual-Control   Outer-Iter.   Inner-Iter.     Column Row Layer    Maximum-Head-Change  Column Row Layer    Maximum-Flux-Residual          L2-NORM 
          0                 1           2            74    7     1      -0.5399849737E-01      51    1    1        -0.1634608408E-02      0.3239703907E-01
          0                 2           2            51    1     1       0.5202180310E-02      51    1    1         0.1630517188E-03      0.3150069598E-02
          0                 3           2            51    1     1      -0.4569519959E-03      51    1    1        -0.1468013157E-04      0.2969123869E-03
          0                 4           1            51    1     1       0.3595097159E-04      71    4    1        -0.1515800742E-05      0.2572157741E-04
          0                 5           1            51    1     1      -0.2477928420E-05      72    4    1         0.1427224134E-06      0.1944881332E-05
          0                 6           1            51    1     1       0.1476901571E-06      72    4    1        -0.1042001507E-07      0.1257952585E-06

    ------------------------------------------------
       NWT REQUIRED            6 OUTER ITERATIONS 
       AND A TOTAL OF          9 INNER ITERATIONS.
    ------------------------------------------------

 NO OUTPUT CONTROL FOR STRESS PERIOD   25   TIME STEP   22
 
 WELLS WITH REDUCED PUMPING FOR STRESS PERIOD    25 TIME STEP    22
   LAY   ROW   COL         APPL.Q          ACT.Q        GW-HEAD       CELL-BOT
     1     3    50  -0.929994E+00  -0.491007E+00   0.580893E+01   0.000000E+00
     1     5    55  -0.929994E+00  -0.402792E+00   0.505371E+01   0.000000E+00
 
 
 SOLVING FOR HEAD 
                                                   Max.-Head-Change                         Max.-Flux-Residual
  Residual-Control   Outer-Iter.   Inner-Iter.     Column Row Layer    Maximum-Head-Change  Column Row Layer    Maximum-Flux-Residual          L2-NORM 
          0                 1           3            74    7     1      -0.5921188959E-01      74    3    1        -0.1525988940E-02      0.3225878243E-01
          0                 2           2            74    7     1       0.5421723657E-02      74    5    1         0.1525777559E-03      0.3136098888E-02
          0                 3           2            51    1     1      -0.4661546199E-03      74    3    1        -0.1373381355E-04      0.2957972494E-03
          0                 4           1            51    1     1       0.3659273798E-04      71    4    1        -0.1536631595E-05      0.2568545617E-04
          0                 5           1            51    1     1      -0.2512528563E-05      74    4    1         0.1426316985E-06      0.1942630216E-05
          0                 6           1            51    1     1       0.1493303926E-06      74    4    1        -0.1053425969E-07      0.1257813004E-06

    ------------------------------------------------
       NWT REQUIRED            6 OUTER ITERATIONS 
       AND A TOTAL OF         10 INNER ITERATIONS.
    ------------------------------------------------

 NO OUTPUT CONTROL FOR STRESS PERIOD   25   TIME STEP   23
 
 WELLS WITH REDUCED PUMPING FOR STRESS PERIOD    25 TIME STEP    23
   LAY   ROW   COL         APPL.Q          ACT.Q        GW-HEAD       CELL-BOT
     1     3    50  -0.929988E+00  -0.488639E+00   0.578992E+01   0.000000E+00
     1     5    55  -0.929988E+00  -0.400790E+00   0.503766E+01   0.000000E+00
 
 
 SOLVING FOR HEAD 
                                                   Max.-Head-Change                         Max.-Flux-Residual
  Residual-Control   Outer-Iter.   Inner-Iter.     Column Row Layer    Maximum-Head-Change  Column Row Layer    Maximum-Flux-Residual          L2-NORM 
          0                 1           3            74    7     1      -0.6491828425E-01      73    5    1        -0.1521900547E-02      0.3210850269E-01
          0                 2           2            74    7     1       0.5933321295E-02      73    5    1         0.1521657453E-03      0.3122351982E-02
          0                 3           2            74    7     1      -0.4894394317E-03      73    5    1        -0.1369666929E-04      0.2946673756E-03
          0                 4           1            52    1     1       0.3748426483E-04      71    4    1        -0.1550925843E-05      0.2564223164E-04
          0                 5           1            51    1     1      -0.2556688154E-05      74    4    1         0.1450715121E-06      0.1938017900E-05
          0                 6           1            51    1     1       0.1514012773E-06      74    4    1        -0.1076770673E-07      0.1255249175E-06

    ------------------------------------------------
       NWT REQUIRED            6 OUTER ITERATIONS 
       AND A TOTAL OF         10 INNER ITERATIONS.
    ------------------------------------------------

 NO OUTPUT CONTROL FOR STRESS PERIOD   25   TIME STEP   24
 
 WELLS WITH REDUCED PUMPING FOR STRESS PERIOD    25 TIME STEP    24
   LAY   ROW   COL         APPL.Q          ACT.Q        GW-HEAD       CELL-BOT
     1     3    50  -0.929996E+00  -0.486218E+00   0.577042E+01   0.000000E+00
     1     5    55  -0.929996E+00  -0.398710E+00   0.502094E+01   0.000000E+00
 
 
 SOLVING FOR HEAD 
                                                   Max.-Head-Change                         Max.-Flux-Residual
  Residual-Control   Outer-Iter.   Inner-Iter.     Column Row Layer    Maximum-Head-Change  Column Row Layer    Maximum-Flux-Residual          L2-NORM 
          0                 1           3            74    7     1      -0.7114336687E-01      74    3    1        -0.1516806516E-02      0.3195801895E-01
          0                 2           2            74    7     1       0.6486637396E-02      74    5    1         0.1516553565E-03      0.3106772386E-02
          0                 3           2            74    7     1      -0.5333728192E-03      74    3    1        -0.1365145976E-04      0.2933120963E-03
          0                 4           1            52    1     1       0.3998605149E-04      70    4    1        -0.1548195952E-05      0.2557637134E-04
          0                 5           1            52    1     1      -0.2670272237E-05      70    4    1         0.1469799216E-06      0.1930187878E-05
          0                 6           1            51    7     1       0.1562043650E-06      74    4    1        -0.1094185897E-07      0.1249958718E-06

    ------------------------------------------------
       NWT REQUIRED            6 OUTER ITERATIONS 
       AND A TOTAL OF         10 INNER ITERATIONS.
    ------------------------------------------------

 NO OUTPUT CONTROL FOR STRESS PERIOD   25   TIME STEP   25
 
 WELLS WITH REDUCED PUMPING FOR STRESS PERIOD    25 TIME STEP    25
   LAY   ROW   COL         APPL.Q          ACT.Q        GW-HEAD       CELL-BOT
     1     3    50  -0.930010E+00  -0.483708E+00   0.575020E+01   0.000000E+00
     1     5    55  -0.930010E+00  -0.396516E+00   0.500327E+01   0.000000E+00
 
 
 SOLVING FOR HEAD 
                                                   Max.-Head-Change                         Max.-Flux-Residual
  Residual-Control   Outer-Iter.   Inner-Iter.     Column Row Layer    Maximum-Head-Change  Column Row Layer    Maximum-Flux-Residual          L2-NORM 
          0                 1           3            74    7     1      -0.7794612005E-01      74    3    1        -0.1511446877E-02      0.3179254519E-01
          0                 2           2            74    7     1       0.7100808111E-02      74    5    1         0.1511182030E-03      0.3091464331E-02
          0                 3           2            74    7     1      -0.5828439938E-03      74    3    1        -0.1360352897E-04      0.2919664034E-03
          0                 4           1            74    7     1       0.4261084512E-04      69    4    1        -0.1536059138E-05      0.2550406617E-04
          0                 5           1            52    1     1      -0.2797147312E-05      72    4    1         0.1467078548E-06      0.1918650352E-05
          0                 6           1            53    1     1       0.1627763777E-06      72    4    1        -0.1095289548E-07      0.1240871040E-06

    ------------------------------------------------
       NWT REQUIRED            6 OUTER ITERATIONS 
       AND A TOTAL OF         10 INNER ITERATIONS.
    ------------------------------------------------

 NO OUTPUT CONTROL FOR STRESS PERIOD   25   TIME STEP   26
 
 WELLS WITH REDUCED PUMPING FOR STRESS PERIOD    25 TIME STEP    26
   LAY   ROW   COL         APPL.Q          ACT.Q        GW-HEAD       CELL-BOT
     1     3    50  -0.930006E+00  -0.481162E+00   0.572976E+01   0.000000E+00
     1     5    55  -0.930006E+00  -0.394262E+00   0.498517E+01   0.000000E+00
 
 
 SOLVING FOR HEAD 
                                                   Max.-Head-Change                         Max.-Flux-Residual
  Residual-Control   Outer-Iter.   Inner-Iter.     Column Row Layer    Maximum-Head-Change  Column Row Layer    Maximum-Flux-Residual          L2-NORM 
          0                 1           3            74    7     1      -0.8535475256E-01      74    3    1        -0.1506169343E-02      0.3162996712E-01
          0                 2           2            74    7     1       0.7758268916E-02      74    5    1         0.1505873869E-03      0.3074158755E-02
          0                 3           2            74    7     1      -0.6349113703E-03      74    3    1        -0.1355638758E-04      0.2903772369E-03
          0                 4           1            74    7     1       0.4622269593E-04      69    4    1        -0.1548356911E-05      0.2540907865E-04
          0                 5           1            53    1     1      -0.2934240839E-05      72    4    1         0.1480951592E-06      0.1902570288E-05
          0                 6           1            53    1     1       0.1704737705E-06      72    4    1        -0.1108986680E-07      0.1227784989E-06

    ------------------------------------------------
       NWT REQUIRED            6 OUTER ITERATIONS 
       AND A TOTAL OF         10 INNER ITERATIONS.
    ------------------------------------------------

 NO OUTPUT CONTROL FOR STRESS PERIOD   25   TIME STEP   27
 
 WELLS WITH REDUCED PUMPING FOR STRESS PERIOD    25 TIME STEP    27
   LAY   ROW   COL         APPL.Q          ACT.Q        GW-HEAD       CELL-BOT
     1     3    50  -0.930002E+00  -0.478488E+00   0.570830E+01   0.000000E+00
     1     5    55  -0.930002E+00  -0.391863E+00   0.496588E+01   0.000000E+00
 
 
 SOLVING FOR HEAD 
                                                   Max.-Head-Change                         Max.-Flux-Residual
  Residual-Control   Outer-Iter.   Inner-Iter.     Column Row Layer    Maximum-Head-Change  Column Row Layer    Maximum-Flux-Residual          L2-NORM 
          0                 1           3            73    7     1      -0.9340702267E-01      74    3    1        -0.1500054563E-02      0.3145705518E-01
          0                 2           2            74    7     1       0.8478089822E-02      74    5    1         0.1499699312E-03      0.3057245251E-02
          0                 3           2            74    7     1      -0.6924106050E-03      74    3    1        -0.1350160859E-04      0.2887170367E-03
          0                 4           1            74    7     1       0.5023208223E-04      72    4    1        -0.1541716449E-05      0.2529075657E-04
          0                 5           1            73    7     1      -0.3122459187E-05      72    4    1         0.1497799111E-06      0.1881032094E-05
          0                 6           1            53    1     1       0.1768775407E-06      72    4    1        -0.1125046900E-07      0.1210324271E-06

    ------------------------------------------------
       NWT REQUIRED            6 OUTER ITERATIONS 
       AND A TOTAL OF         10 INNER ITERATIONS.
    ------------------------------------------------

 NO OUTPUT CONTROL FOR STRESS PERIOD   25   TIME STEP   28
 
 WELLS WITH REDUCED PUMPING FOR STRESS PERIOD    25 TIME STEP    28
   LAY   ROW   COL         APPL.Q          ACT.Q        GW-HEAD       CELL-BOT
     1     3    50  -0.930002E+00  -0.475747E+00   0.568628E+01   0.000000E+00
     1     5    55  -0.930002E+00  -0.389361E+00   0.494575E+01   0.000000E+00
 
 
 SOLVING FOR HEAD 
                                                   Max.-Head-Change                         Max.-Flux-Residual
  Residual-Control   Outer-Iter.   Inner-Iter.     Column Row Layer    Maximum-Head-Change  Column Row Layer    Maximum-Flux-Residual          L2-NORM 
          0                 1           3            73    7     1      -0.1021624456E+00      73    5    1        -0.1492303769E-02      0.3132752654E-01
          0                 2           2            74    7     1       0.9251839757E-02      73    5    1         0.1491918309E-03      0.3038940252E-02
          0                 3           2            74    7     1      -0.7536046935E-03      73    3    1        -0.1343001147E-04      0.2865103739E-03
          0                 4           1            74    7     1       0.5445465035E-04      72    4    1        -0.1546307718E-05      0.2510360526E-04
          0                 5           1            73    7     1      -0.3342170816E-05      72    4    1         0.1507089635E-06      0.1849942757E-05
          0                 6           1            53    1     1       0.1807426232E-06      72    4    1        -0.1133970962E-07      0.1185950143E-06

    ------------------------------------------------
       NWT REQUIRED            6 OUTER ITERATIONS 
       AND A TOTAL OF         10 INNER ITERATIONS.
    ------------------------------------------------

 NO OUTPUT CONTROL FOR STRESS PERIOD   25   TIME STEP   29
 
 WELLS WITH REDUCED PUMPING FOR STRESS PERIOD    25 TIME STEP    29
   LAY   ROW   COL         APPL.Q          ACT.Q        GW-HEAD       CELL-BOT
     1     3    50  -0.929993E+00  -0.472897E+00   0.566343E+01   0.000000E+00
     1     5    55  -0.929993E+00  -0.386724E+00   0.492454E+01   0.000000E+00
 
 
 SOLVING FOR HEAD 
                                                   Max.-Head-Change                         Max.-Flux-Residual
  Residual-Control   Outer-Iter.   Inner-Iter.     Column Row Layer    Maximum-Head-Change  Column Row Layer    Maximum-Flux-Residual          L2-NORM 
          0                 1           3            73    7     1      -0.1116917739E+00      73    5    1        -0.1483897510E-02      0.3122722054E-01
          0                 2           3            73    7     1       0.1010486167E-01      73    5    1         0.1483468075E-03      0.3026677968E-02
          0                 3           2            73    7     1      -0.8214342616E-03      73    5    1        -0.1335418587E-04      0.2848862776E-03
          0                 4           1            73    1     1       0.5916122991E-04      71    4    1        -0.1539119829E-05      0.2494700245E-04
          0                 5           1            73    1     1      -0.3562247474E-05      70    4    1         0.1483704679E-06      0.1815912478E-05
          0                 6           1            71    7     1       0.1883710010E-06      70    4    1        -0.1117996007E-07      0.1159061472E-06

    ------------------------------------------------
       NWT REQUIRED            6 OUTER ITERATIONS 
       AND A TOTAL OF         11 INNER ITERATIONS.
    ------------------------------------------------

 OUTPUT CONTROL FOR STRESS PERIOD   25   TIME STEP   30
    PRINT HEAD FOR ALL LAYERS
    SAVE HEAD FOR ALL LAYERS
    PRINT BUDGET
    SAVE BUDGET
 
 WELLS WITH REDUCED PUMPING FOR STRESS PERIOD    25 TIME STEP    30
   LAY   ROW   COL         APPL.Q          ACT.Q        GW-HEAD       CELL-BOT
     1     3    50  -0.929995E+00  -0.469938E+00   0.563967E+01   0.000000E+00
     1     5    55  -0.929995E+00  -0.383955E+00   0.490220E+01   0.000000E+00

            WELLS   PERIOD   25   STEP  30
 WELL      1   LAYER   1   ROW     3   COL    50   RATE   -0.469938    
 WELL      2   LAYER   1   ROW     5   COL    55   RATE   -0.383955    
 

  HEAD DEP BOUNDS   PERIOD   25   STEP    30
 BOUNDARY      1   LAYER   1   ROW     1   COL   100   RATE   -1.297300E-03
 BOUNDARY      2   LAYER   1   ROW     2   COL   100   RATE   -1.308621E-03
 BOUNDARY      3   LAYER   1   ROW     3   COL   100   RATE   -1.333213E-03
 BOUNDARY      4   LAYER   1   ROW     4   COL   100   RATE   -1.380911E-03
 BOUNDARY      5   LAYER   1   ROW     5   COL   100   RATE   -1.333213E-03
 BOUNDARY      6   LAYER   1   ROW     6   COL   100   RATE   -1.308621E-03
 BOUNDARY      7   LAYER   1   ROW     7   COL   100   RATE   -1.297300E-03



 STREAM LISTING     PERIOD     25   STEP       30

 LAYER ROW COL. STREAM  RCH.   FLOW INTO    STREAM     FLOW OUT OF   OVRLND.    DIRECT     STREAM      STREAM      STREAM     STREAM  STREAMBED   FLOW TO   CHNG. UNSAT. 
                SEG.NO.  NO.   STRM. RCH.    LOSS       STRM. RCH.   RUNOFF     PRECIP       ET         HEAD        DEPTH      WIDTH  CONDCTNC.   WAT. TAB.

   1    4    1     1     1    3.2900E-01  3.5874E-04   3.2864E-01  0.000E+00  0.000E+00  0.000E+00  1.40296E+02  4.461E-01  2.346E+00  3.792E-04  5.581E-04 -1.993E-04
   1    4    2     1     2    3.2864E-01  3.5860E-04   3.2828E-01  0.000E+00  0.000E+00  0.000E+00  1.39996E+02  4.459E-01  2.346E+00  3.791E-04  5.529E-04 -1.943E-04
   1    4    3     1     3    3.2828E-01  3.5846E-04   3.2792E-01  0.000E+00  0.000E+00  0.000E+00  1.39696E+02  4.457E-01  2.346E+00  3.790E-04  5.486E-04 -1.901E-04
   1    4    4     1     4    3.2792E-01  3.5832E-04   3.2757E-01  0.000E+00  0.000E+00  0.000E+00  1.39395E+02  4.455E-01  2.345E+00  3.790E-04  5.450E-04 -1.867E-04
   1    4    5     1     5    3.2757E-01  3.5818E-04   3.2721E-01  0.000E+00  0.000E+00  0.000E+00  1.39095E+02  4.453E-01  2.345E+00  3.789E-04  5.423E-04 -1.841E-04
   1    4    6     1     6    3.2721E-01  3.5804E-04   3.2685E-01  0.000E+00  0.000E+00  0.000E+00  1.38795E+02  4.451E-01  2.345E+00  3.789E-04  5.404E-04 -1.823E-04
   1    4    7     1     7    3.2685E-01  3.5790E-04   3.2649E-01  0.000E+00  0.000E+00  0.000E+00  1.38495E+02  4.449E-01  2.345E+00  3.788E-04  5.393E-04 -1.814E-04
   1    4    8     1     8    3.2649E-01  3.5776E-04   3.2613E-01  0.000E+00  0.000E+00  0.000E+00  1.38195E+02  4.447E-01  2.345E+00  3.787E-04  5.390E-04 -1.812E-04
   1    4    9     1     9    3.2613E-01  3.5763E-04   3.2578E-01  0.000E+00  0.000E+00  0.000E+00  1.37894E+02  4.445E-01  2.344E+00  3.787E-04  5.396E-04 -1.819E-04
   1    4   10     1    10    3.2578E-01  3.5749E-04   3.2542E-01  0.000E+00  0.000E+00  0.000E+00  1.37594E+02  4.443E-01  2.344E+00  3.786E-04  5.410E-04 -1.835E-04
   1    4   11     1    11    3.2542E-01  3.5735E-04   3.2506E-01  0.000E+00  0.000E+00  0.000E+00  1.37294E+02  4.441E-01  2.344E+00  3.785E-04  5.432E-04 -1.859E-04
   1    4   12     1    12    3.2506E-01  3.5721E-04   3.2470E-01  0.000E+00  0.000E+00  0.000E+00  1.36994E+02  4.439E-01  2.344E+00  3.785E-04  5.463E-04 -1.891E-04
   1    4   13     1    13    3.2470E-01  3.5707E-04   3.2435E-01  0.000E+00  0.000E+00  0.000E+00  1.36694E+02  4.437E-01  2.343E+00  3.784E-04  5.503E-04 -1.933E-04
   1    4   14     1    14    3.2435E-01  3.5693E-04   3.2399E-01  0.000E+00  0.000E+00  0.000E+00  1.36393E+02  4.435E-01  2.343E+00  3.783E-04  5.553E-04 -1.983E-04
   1    4   15     1    15    3.2399E-01  3.5679E-04   3.2363E-01  0.000E+00  0.000E+00  0.000E+00  1.36093E+02  4.433E-01  2.343E+00  3.783E-04  5.601E-04 -2.033E-04
   1    4   16     1    16    3.2363E-01  3.5665E-04   3.2328E-01  0.000E+00  0.000E+00  0.000E+00  1.35793E+02  4.431E-01  2.343E+00  3.782E-04  5.643E-04 -2.076E-04
   1    4   17     1    17    3.2328E-01  3.5651E-04   3.2292E-01  0.000E+00  0.000E+00  0.000E+00  1.35493E+02  4.428E-01  2.342E+00  3.781E-04  5.709E-04 -2.144E-04
   1    4   18     1    18    3.2292E-01  3.5637E-04   3.2256E-01  0.000E+00  0.000E+00  0.000E+00  1.35193E+02  4.426E-01  2.342E+00  3.781E-04  5.784E-04 -2.221E-04
   1    4   19     1    19    3.2256E-01  3.5624E-04   3.2221E-01  0.000E+00  0.000E+00  0.000E+00  1.34892E+02  4.424E-01  2.342E+00  3.780E-04  5.868E-04 -2.306E-04
   1    4   20     1    20    3.2221E-01  3.5610E-04   3.2185E-01  0.000E+00  0.000E+00  0.000E+00  1.34592E+02  4.422E-01  2.342E+00  3.779E-04  5.987E-04 -2.426E-04
   1    4   21     1    21    3.2185E-01  3.5596E-04   3.2150E-01  0.000E+00  0.000E+00  0.000E+00  1.34292E+02  4.420E-01  2.341E+00  3.779E-04  6.074E-04 -2.514E-04
   1    4   22     1    22    3.2150E-01  3.5582E-04   3.2114E-01  0.000E+00  0.000E+00  0.000E+00  1.33992E+02  4.418E-01  2.341E+00  3.778E-04  6.184E-04 -2.626E-04
   1    4   23     1    23    3.2114E-01  3.5568E-04   3.2078E-01  0.000E+00  0.000E+00  0.000E+00  1.33692E+02  4.416E-01  2.341E+00  3.777E-04  6.326E-04 -2.769E-04
   1    4   24     1    24    3.2078E-01  3.5554E-04   3.2043E-01  0.000E+00  0.000E+00  0.000E+00  1.33391E+02  4.414E-01  2.341E+00  3.777E-04  6.453E-04 -2.898E-04
   1    4   25     1    25    3.2043E-01  3.5540E-04   3.2007E-01  0.000E+00  0.000E+00  0.000E+00  1.33091E+02  4.412E-01  2.340E+00  3.776E-04  6.606E-04 -3.052E-04
   1    4   26     1    26    3.2007E-01  3.5526E-04   3.1972E-01  0.000E+00  0.000E+00  0.000E+00  1.32791E+02  4.410E-01  2.340E+00  3.775E-04  6.734E-04 -3.181E-04
   1    4   27     1    27    3.1972E-01  3.5513E-04   3.1936E-01  0.000E+00  0.000E+00  0.000E+00  1.32491E+02  4.408E-01  2.340E+00  3.775E-04  6.848E-04 -3.297E-04
   1    4   28     1    28    3.1936E-01  3.5499E-04   3.1901E-01  0.000E+00  0.000E+00  0.000E+00  1.32191E+02  4.406E-01  2.340E+00  3.774E-04  6.917E-04 -3.368E-04
   1    4   29     1    29    3.1901E-01  3.5485E-04   3.1865E-01  0.000E+00  0.000E+00  0.000E+00  1.31890E+02  4.404E-01  2.339E+00  3.773E-04  6.953E-04 -3.405E-04
   1    4   30     1    30    3.1865E-01  3.5471E-04   3.1830E-01  0.000E+00  0.000E+00  0.000E+00  1.31590E+02  4.402E-01  2.339E+00  3.773E-04  6.956E-04 -3.409E-04
   1    4   31     1    31    3.1830E-01  3.5457E-04   3.1794E-01  0.000E+00  0.000E+00  0.000E+00  1.31290E+02  4.400E-01  2.339E+00  3.772E-04  6.959E-04 -3.414E-04
   1    4   32     1    32    3.1794E-01  3.5443E-04   3.1759E-01  0.000E+00  0.000E+00  0.000E+00  1.30990E+02  4.398E-01  2.339E+00  3.771E-04  6.964E-04 -3.420E-04
   1    4   33     1    33    3.1759E-01  3.5429E-04   3.1723E-01  0.000E+00  0.000E+00  0.000E+00  1.30690E+02  4.396E-01  2.338E+00  3.771E-04  6.970E-04 -3.427E-04
   1    4   34     1    34    3.1723E-01  3.5416E-04   3.1688E-01  0.000E+00  0.000E+00  0.000E+00  1.30389E+02  4.394E-01  2.338E+00  3.770E-04  6.976E-04 -3.435E-04
   1    4   35     1    35    3.1688E-01  3.5402E-04   3.1653E-01  0.000E+00  0.000E+00  0.000E+00  1.30089E+02  4.392E-01  2.338E+00  3.769E-04  6.983E-04 -3.443E-04
   1    4   36     1    36    3.1653E-01  3.5388E-04   3.1617E-01  0.000E+00  0.000E+00  0.000E+00  1.29789E+02  4.390E-01  2.338E+00  3.769E-04  7.529E-04 -3.991E-04
   1    4   37     1    37    3.1617E-01  3.5374E-04   3.1582E-01  0.000E+00  0.000E+00  0.000E+00  1.29489E+02  4.388E-01  2.337E+00  3.768E-04  7.539E-04 -4.002E-04
   1    4   38     1    38    3.1582E-01  3.5360E-04   3.1547E-01  0.000E+00  0.000E+00  0.000E+00  1.29189E+02  4.386E-01  2.337E+00  3.767E-04  8.011E-04 -4.475E-04
   1    4   39     1    39    3.1547E-01  3.5346E-04   3.1511E-01  0.000E+00  0.000E+00  0.000E+00  1.28888E+02  4.384E-01  2.337E+00  3.767E-04  8.112E-04 -4.578E-04
   1    4   40     1    40    3.1511E-01  3.5332E-04   3.1476E-01  0.000E+00  0.000E+00  0.000E+00  1.28588E+02  4.382E-01  2.337E+00  3.766E-04  8.124E-04 -4.591E-04
   1    4   41     1    41    3.1476E-01  3.5319E-04   3.1441E-01  0.000E+00  0.000E+00  0.000E+00  1.28288E+02  4.380E-01  2.337E+00  3.765E-04  8.135E-04 -4.604E-04
   1    4   42     1    42    3.1441E-01  3.5305E-04   3.1405E-01  0.000E+00  0.000E+00  0.000E+00  1.27988E+02  4.378E-01  2.336E+00  3.765E-04  8.145E-04 -4.615E-04
   1    4   43     1    43    3.1405E-01  3.5291E-04   3.1370E-01  0.000E+00  0.000E+00  0.000E+00  1.27688E+02  4.376E-01  2.336E+00  3.764E-04  8.153E-04 -4.624E-04
   1    4   44     1    44    3.1370E-01  3.5277E-04   3.1335E-01  0.000E+00  0.000E+00  0.000E+00  1.27387E+02  4.374E-01  2.336E+00  3.763E-04  8.159E-04 -4.632E-04
   1    4   45     1    45    3.1335E-01  3.5263E-04   3.1299E-01  0.000E+00  0.000E+00  0.000E+00  1.27087E+02  4.372E-01  2.336E+00  3.763E-04  8.166E-04 -4.640E-04
   1    4   46     1    46    3.1299E-01  3.5249E-04   3.1264E-01  0.000E+00  0.000E+00  0.000E+00  1.26787E+02  4.370E-01  2.335E+00  3.762E-04  8.175E-04 -4.650E-04
   1    4   47     1    47    3.1264E-01  3.5236E-04   3.1229E-01  0.000E+00  0.000E+00  0.000E+00  1.26487E+02  4.368E-01  2.335E+00  3.761E-04  8.192E-04 -4.669E-04
   1    4   48     1    48    3.1229E-01  3.5222E-04   3.1194E-01  0.000E+00  0.000E+00  0.000E+00  1.26187E+02  4.366E-01  2.335E+00  3.761E-04  8.976E-04 -5.455E-04
   1    4   49     1    49    3.1194E-01  3.5208E-04   3.1159E-01  0.000E+00  0.000E+00  0.000E+00  1.25886E+02  4.364E-01  2.335E+00  3.760E-04  9.199E-04 -5.679E-04
   1    4   50     1    50    3.1159E-01  3.5194E-04   3.1123E-01  0.000E+00  0.000E+00  0.000E+00  1.25586E+02  4.362E-01  2.334E+00  3.759E-04  1.228E-03 -8.758E-04
   1    4   51     1    51    3.1123E-01  3.5180E-04   3.1088E-01  0.000E+00  0.000E+00  0.000E+00  1.25286E+02  4.360E-01  2.334E+00  3.759E-04  1.200E-03 -8.485E-04
   1    4   52     1    52    3.1088E-01  3.5167E-04   3.1053E-01  0.000E+00  0.000E+00  0.000E+00  1.24986E+02  4.358E-01  2.334E+00  3.758E-04  1.162E-03 -8.109E-04
   1    4   53     1    53    3.1053E-01  3.5153E-04   3.1018E-01  0.000E+00  0.000E+00  0.000E+00  1.24686E+02  4.356E-01  2.334E+00  3.757E-04  1.162E-03 -8.105E-04
   1    4   54     1    54    3.1018E-01  3.5139E-04   3.0983E-01  0.000E+00  0.000E+00  0.000E+00  1.24385E+02  4.354E-01  2.333E+00  3.757E-04  1.199E-03 -8.473E-04
   1    4   55     1    55    3.0983E-01  3.5125E-04   3.0948E-01  0.000E+00  0.000E+00  0.000E+00  1.24085E+02  4.351E-01  2.333E+00  3.756E-04  1.224E-03 -8.729E-04
   1    4   56     1    56    3.0948E-01  3.5111E-04   3.0912E-01  0.000E+00  0.000E+00  0.000E+00  1.23785E+02  4.349E-01  2.333E+00  3.755E-04  9.280E-04 -5.770E-04
   1    4   57     1    57    3.0912E-01  3.5097E-04   3.0877E-01  0.000E+00  0.000E+00  0.000E+00  1.23485E+02  4.347E-01  2.333E+00  3.755E-04  8.880E-04 -5.370E-04
   1    4   58     1    58    3.0877E-01  3.5084E-04   3.0842E-01  0.000E+00  0.000E+00  0.000E+00  1.23185E+02  4.345E-01  2.332E+00  3.754E-04  8.496E-04 -4.989E-04
   1    4   59     1    59    3.0842E-01  3.5070E-04   3.0807E-01  0.000E+00  0.000E+00  0.000E+00  1.22884E+02  4.343E-01  2.332E+00  3.753E-04  8.047E-04 -4.541E-04
   1    4   60     1    60    3.0807E-01  3.5056E-04   3.0772E-01  0.000E+00  0.000E+00  0.000E+00  1.22584E+02  4.341E-01  2.332E+00  3.753E-04  8.014E-04 -4.509E-04
   1    4   61     1    61    3.0772E-01  3.5042E-04   3.0737E-01  0.000E+00  0.000E+00  0.000E+00  1.22284E+02  4.339E-01  2.332E+00  3.752E-04  7.985E-04 -4.481E-04
   1    4   62     1    62    3.0737E-01  3.5028E-04   3.0702E-01  0.000E+00  0.000E+00  0.000E+00  1.21984E+02  4.337E-01  2.331E+00  3.751E-04  7.957E-04 -4.455E-04
   1    4   63     1    63    3.0702E-01  3.5015E-04   3.0667E-01  0.000E+00  0.000E+00  0.000E+00  1.21684E+02  4.335E-01  2.331E+00  3.751E-04  7.930E-04 -4.429E-04
   1    4   64     1    64    3.0667E-01  3.5001E-04   3.0632E-01  0.000E+00  0.000E+00  0.000E+00  1.21383E+02  4.333E-01  2.331E+00  3.750E-04  7.903E-04 -4.404E-04
   1    4   65     1    65    3.0632E-01  3.4987E-04   3.0597E-01  0.000E+00  0.000E+00  0.000E+00  1.21083E+02  4.331E-01  2.331E+00  3.749E-04  7.877E-04 -4.379E-04
   1    4   66     1    66    3.0597E-01  3.4973E-04   3.0562E-01  0.000E+00  0.000E+00  0.000E+00  1.20783E+02  4.329E-01  2.330E+00  3.749E-04  7.852E-04 -4.356E-04
   1    4   67     1    67    3.0562E-01  3.4960E-04   3.0527E-01  0.000E+00  0.000E+00  0.000E+00  1.20483E+02  4.327E-01  2.330E+00  3.748E-04  7.829E-04 -4.333E-04
   1    4   68     1    68    3.0527E-01  3.4946E-04   3.0492E-01  0.000E+00  0.000E+00  0.000E+00  1.20183E+02  4.325E-01  2.330E+00  3.747E-04  7.347E-04 -3.853E-04
   1    4   69     1    69    3.0492E-01  3.4932E-04   3.0457E-01  0.000E+00  0.000E+00  0.000E+00  1.19882E+02  4.323E-01  2.330E+00  3.747E-04  7.257E-04 -3.764E-04
   1    4   70     1    70    3.0457E-01  3.4918E-04   3.0422E-01  0.000E+00  0.000E+00  0.000E+00  1.19582E+02  4.321E-01  2.329E+00  3.746E-04  7.242E-04 -3.751E-04
   1    4   71     1    71    3.0422E-01  3.4904E-04   3.0387E-01  0.000E+00  0.000E+00  0.000E+00  1.19282E+02  4.319E-01  2.329E+00  3.746E-04  7.230E-04 -3.740E-04
   1    4   72     1    72    3.0387E-01  3.4891E-04   3.0353E-01  0.000E+00  0.000E+00  0.000E+00  1.18982E+02  4.317E-01  2.329E+00  3.745E-04  6.802E-04 -3.313E-04
   1    4   73     1    73    3.0353E-01  3.4877E-04   3.0318E-01  0.000E+00  0.000E+00  0.000E+00  1.18681E+02  4.315E-01  2.329E+00  3.744E-04  6.738E-04 -3.250E-04
   1    4   74     1    74    3.0318E-01  3.4863E-04   3.0283E-01  0.000E+00  0.000E+00  0.000E+00  1.18381E+02  4.313E-01  2.329E+00  3.744E-04  6.735E-04 -3.250E-04
   1    4   75     1    75    3.0283E-01  3.4849E-04   3.0248E-01  0.000E+00  0.000E+00  0.000E+00  1.18081E+02  4.311E-01  2.328E+00  3.743E-04  6.736E-04 -3.251E-04
   1    4   76     1    76    3.0248E-01  3.4836E-04   3.0213E-01  0.000E+00  0.000E+00  0.000E+00  1.17781E+02  4.309E-01  2.328E+00  3.742E-04  6.732E-04 -3.249E-04
   1    4   77     1    77    3.0213E-01  3.4822E-04   3.0178E-01  0.000E+00  0.000E+00  0.000E+00  1.17481E+02  4.307E-01  2.328E+00  3.742E-04  6.684E-04 -3.202E-04
   1    4   78     1    78    3.0178E-01  3.4808E-04   3.0143E-01  0.000E+00  0.000E+00  0.000E+00  1.17180E+02  4.305E-01  2.328E+00  3.741E-04  6.593E-04 -3.112E-04
   1    4   79     1    79    3.0143E-01  3.4794E-04   3.0109E-01  0.000E+00  0.000E+00  0.000E+00  1.16880E+02  4.303E-01  2.327E+00  3.740E-04  6.476E-04 -2.997E-04
   1    4   80     1    80    3.0109E-01  3.4781E-04   3.0074E-01  0.000E+00  0.000E+00  0.000E+00  1.16580E+02  4.301E-01  2.327E+00  3.740E-04  6.305E-04 -2.827E-04
   1    4   81     1    81    3.0074E-01  3.4767E-04   3.0039E-01  0.000E+00  0.000E+00  0.000E+00  1.16280E+02  4.299E-01  2.327E+00  3.739E-04  6.167E-04 -2.691E-04
   1    4   82     1    82    3.0039E-01  3.4753E-04   3.0004E-01  0.000E+00  0.000E+00  0.000E+00  1.15980E+02  4.297E-01  2.327E+00  3.738E-04  6.012E-04 -2.537E-04
   1    4   83     1    83    3.0004E-01  3.4739E-04   2.9970E-01  0.000E+00  0.000E+00  0.000E+00  1.15679E+02  4.295E-01  2.326E+00  3.738E-04  5.907E-04 -2.433E-04
   1    4   84     1    84    2.9970E-01  3.4725E-04   2.9935E-01  0.000E+00  0.000E+00  0.000E+00  1.15379E+02  4.293E-01  2.326E+00  3.737E-04  5.785E-04 -2.312E-04
   1    4   85     1    85    2.9935E-01  3.4712E-04   2.9900E-01  0.000E+00  0.000E+00  0.000E+00  1.15079E+02  4.291E-01  2.326E+00  3.736E-04  5.690E-04 -2.218E-04
   1    4   86     1    86    2.9900E-01  3.4698E-04   2.9866E-01  0.000E+00  0.000E+00  0.000E+00  1.14779E+02  4.289E-01  2.326E+00  3.736E-04  5.606E-04 -2.137E-04
   1    4   87     1    87    2.9866E-01  3.4684E-04   2.9831E-01  0.000E+00  0.000E+00  0.000E+00  1.14479E+02  4.287E-01  2.325E+00  3.735E-04  5.559E-04 -2.090E-04
   1    4   88     1    88    2.9831E-01  3.4670E-04   2.9796E-01  0.000E+00  0.000E+00  0.000E+00  1.14178E+02  4.284E-01  2.325E+00  3.734E-04  5.483E-04 -2.016E-04
   1    4   89     1    89    2.9796E-01  3.4657E-04   2.9762E-01  0.000E+00  0.000E+00  0.000E+00  1.13878E+02  4.282E-01  2.325E+00  3.734E-04  5.418E-04 -1.953E-04
   1    4   90     1    90    2.9762E-01  3.4643E-04   2.9727E-01  0.000E+00  0.000E+00  0.000E+00  1.13578E+02  4.280E-01  2.325E+00  3.733E-04  5.365E-04 -1.901E-04
   1    4   91     1    91    2.9727E-01  3.4629E-04   2.9692E-01  0.000E+00  0.000E+00  0.000E+00  1.13278E+02  4.278E-01  2.324E+00  3.732E-04  5.359E-04 -1.896E-04
   1    4   92     1    92    2.9692E-01  3.4616E-04   2.9658E-01  0.000E+00  0.000E+00  0.000E+00  1.12978E+02  4.276E-01  2.324E+00  3.732E-04  5.362E-04 -1.901E-04
   1    4   93     1    93    2.9658E-01  3.4602E-04   2.9623E-01  0.000E+00  0.000E+00  0.000E+00  1.12677E+02  4.274E-01  2.324E+00  3.731E-04  5.349E-04 -1.888E-04
   1    4   94     1    94    2.9623E-01  3.4588E-04   2.9588E-01  0.000E+00  0.000E+00  0.000E+00  1.12377E+02  4.272E-01  2.324E+00  3.730E-04  5.324E-04 -1.865E-04
   1    4   95     1    95    2.9588E-01  3.4574E-04   2.9554E-01  0.000E+00  0.000E+00  0.000E+00  1.12077E+02  4.270E-01  2.323E+00  3.730E-04  5.280E-04 -1.823E-04
   1    4   96     1    96    2.9554E-01  3.4561E-04   2.9519E-01  0.000E+00  0.000E+00  0.000E+00  1.11777E+02  4.268E-01  2.323E+00  3.729E-04  4.971E-04 -1.515E-04
   1    4   97     1    97    2.9519E-01  3.4547E-04   2.9485E-01  0.000E+00  0.000E+00  0.000E+00  1.11477E+02  4.266E-01  2.323E+00  3.728E-04  4.713E-04 -1.258E-04
   1    4   98     1    98    2.9485E-01  3.4533E-04   2.9450E-01  0.000E+00  0.000E+00  0.000E+00  1.11176E+02  4.264E-01  2.323E+00  3.728E-04  4.676E-04 -1.223E-04
   1    4   99     1    99    2.9450E-01  3.4519E-04   2.9416E-01  0.000E+00  0.000E+00  0.000E+00  1.10876E+02  4.262E-01  2.322E+00  3.727E-04  4.707E-04 -1.255E-04
   1    4  100     1   100    2.9416E-01  3.4506E-04   2.9381E-01  0.000E+00  0.000E+00  0.000E+00  1.10576E+02  4.260E-01  2.322E+00  3.726E-04  4.743E-04 -1.293E-04



1
  VOLUMETRIC BUDGET FOR UNSATURATED ZONE BENEATH STREAMS AT END OF TIME STEP    30 STRESS PERIOD  25
  ------------------------------------------------------------------------------------------------

    CUMULATIVE VOLUMES             L**3    RATES FOR THIS TIME STEP         L**3/T
    ------------------                     ------------------------


          STREAM LOSS =     27309110.0000            STREAM LOSS =        3.5188E-02
    CHANGE IN STORAGE =      1118185.2500      CHANGE IN STORAGE =       -3.4082E-02
       RECHARGE TO GW =     26197516.0000         RECHARGE TO GW =        6.9268E-02

             TOTAL IN =     27309110.0000               TOTAL IN =        6.9270E-02

            TOTAL OUT =     27315702.0000              TOTAL OUT =        6.9268E-02

             IN - OUT =        -6592.0000               IN - OUT =        2.6450E-06

  PERCENT DISCREPANCY =           -0.01      PERCENT DISCREPANCY =             0.00



1
              HEAD IN LAYER 1 AT END OF TIME STEP 30 IN STRESS PERIOD 25
  ---------------------------------------------------------------------------

          1      2      3      4      5      6      7      8      9     10
         11     12     13     14     15     16     17     18     19     20
         21     22     23     24     25     26     27     28     29     30
         31     32     33     34     35     36     37     38     39     40
         41     42     43     44     45     46     47     48     49     50
         51     52     53     54     55     56     57     58     59     60
         61     62     63     64     65     66     67     68     69     70
         71     72     73     74     75     76     77     78     79     80
         81     82     83     84     85     86     87     88     89     90
         91     92     93     94     95     96     97     98     99    100
 .........................................................................
   1  99.2 99.2 99.1 99.0 98.8 98.6 98.4 98.1 97.7 97.4
      96.9 96.5 95.9 95.4 94.8 94.1 93.4 92.7 91.9 91.0
      90.1 89.2 88.1 87.1 85.9 84.7 83.5 82.1 80.7 79.2
      77.7 76.0 74.3 72.5 70.6 68.5 66.4 64.1 61.7 59.1
      56.4 53.5 50.3 46.9 43.2 39.0 34.2 28.7 21.9 14.3
      13.6 14.1 14.3 14.9 16.7 21.1 25.9 30.3 34.2 37.7
      40.9 43.8 46.4 48.8 51.1 53.2 55.1 56.9 58.6 60.1
      61.6 62.9 64.2 65.3 66.4 67.4 68.4 69.2 70.0 70.7
      71.3 71.9 72.5 72.9 73.3 73.7 74.0 74.3 74.5 74.7
      74.9 75.0 75.1 75.1 75.1 75.1 75.1 75.1 75.0 75.0
   2  99.2 99.2 99.1 99.0 98.8 98.6 98.4 98.1 97.7 97.4
      96.9 96.5 95.9 95.4 94.8 94.1 93.4 92.7 91.9 91.0
      90.1 89.2 88.1 87.1 85.9 84.7 83.5 82.1 80.7 79.2
      77.7 76.0 74.3 72.5 70.6 68.5 66.4 64.1 61.7 59.1
      56.4 53.5 50.3 46.9 43.2 39.0 34.3 28.7 21.6 12.1
      13.3 14.0 14.2 14.5 16.0 20.8 25.8 30.3 34.2 37.7
      40.9 43.8 46.4 48.8 51.1 53.2 55.1 56.9 58.6 60.1
      61.6 62.9 64.2 65.3 66.4 67.4 68.4 69.2 70.0 70.7
      71.3 71.9 72.5 72.9 73.3 73.7 74.0 74.3 74.5 74.7
      74.9 75.0 75.1 75.1 75.1 75.1 75.1 75.1 75.0 75.0
   3  99.2 99.2 99.1 99.0 98.8 98.6 98.4 98.1 97.7 97.4
      96.9 96.5 96.0 95.4 94.8 94.1 93.4 92.7 91.9 91.0
      90.1 89.2 88.1 87.1 85.9 84.7 83.5 82.1 80.7 79.2
      77.7 76.0 74.3 72.5 70.6 68.5 66.4 64.1 61.7 59.1
      56.4 53.5 50.3 46.9 43.2 39.0 34.3 28.8 21.4 5.6
      13.1 14.1 14.1 13.8 14.1 20.2 25.6 30.2 34.2 37.7
      40.9 43.8 46.4 48.8 51.1 53.2 55.1 56.9 58.6 60.1
      61.6 62.9 64.2 65.3 66.4 67.4 68.4 69.2 70.0 70.7
      71.3 71.9 72.5 72.9 73.3 73.7 74.0 74.3 74.5 74.7
      74.9 75.0 75.1 75.1 75.1 75.1 75.1 75.1 75.0 75.0
   4  99.2 99.2 99.1 99.0 98.8 98.6 98.4 98.1 97.7 97.4
      96.9 96.5 96.0 95.4 94.8 94.1 93.4 92.7 91.9 91.0
      90.1 89.2 88.1 87.1 85.9 84.7 83.5 82.1 80.7 79.2
      77.7 76.0 74.3 72.5 70.6 68.5 66.4 64.1 61.7 59.2
      56.4 53.5 50.3 46.9 43.2 39.0 34.4 28.9 22.1 12.3
      13.9 14.3 14.0 13.1 11.0 19.5 25.5 30.2 34.2 37.7
      40.9 43.8 46.4 48.9 51.1 53.2 55.1 56.9 58.6 60.1
      61.6 62.9 64.2 65.4 66.4 67.4 68.4 69.2 70.0 70.7
      71.3 71.9 72.5 72.9 73.3 73.7 74.0 74.3 74.5 74.7
      74.9 75.0 75.1 75.1 75.1 75.1 75.1 75.1 75.1 75.0
   5  99.2 99.2 99.1 99.0 98.8 98.6 98.4 98.1 97.7 97.4
      96.9 96.5 96.0 95.4 94.8 94.1 93.4 92.7 91.9 91.0
      90.1 89.2 88.1 87.1 85.9 84.7 83.5 82.1 80.7 79.2
      77.7 76.0 74.3 72.5 70.6 68.5 66.4 64.1 61.7 59.1
      56.4 53.5 50.3 46.9 43.2 39.0 34.4 29.1 22.8 15.8
      14.8 14.4 13.8 12.4 4.9 18.9 25.3 30.1 34.2 37.7
      40.9 43.8 46.4 48.8 51.1 53.2 55.1 56.9 58.6 60.1
      61.6 62.9 64.2 65.3 66.4 67.4 68.4 69.2 70.0 70.7
      71.3 71.9 72.5 72.9 73.3 73.7 74.0 74.3 74.5 74.7
      74.9 75.0 75.1 75.1 75.1 75.1 75.1 75.1 75.0 75.0
   6  99.2 99.2 99.1 99.0 98.8 98.6 98.4 98.1 97.7 97.4
      96.9 96.5 95.9 95.4 94.8 94.1 93.4 92.7 91.9 91.0
      90.1 89.2 88.1 87.1 85.9 84.7 83.5 82.1 80.7 79.2
      77.7 76.0 74.3 72.5 70.6 68.5 66.4 64.1 61.7 59.1
      56.4 53.5 50.3 46.9 43.2 39.1 34.5 29.3 23.5 17.8
      15.6 14.6 13.8 12.6 10.8 19.1 25.2 30.1 34.1 37.7
      40.9 43.8 46.4 48.8 51.1 53.2 55.1 56.9 58.6 60.1
      61.6 62.9 64.2 65.3 66.4 67.4 68.4 69.2 70.0 70.7
      71.3 71.9 72.5 72.9 73.3 73.7 74.0 74.3 74.5 74.7
      74.9 75.0 75.1 75.1 75.1 75.1 75.1 75.1 75.0 75.0
   7  99.2 99.2 99.1 99.0 98.8 98.6 98.4 98.1 97.7 97.4
      96.9 96.5 95.9 95.4 94.8 94.1 93.4 92.7 91.9 91.0
      90.1 89.2 88.1 87.1 85.9 84.7 83.5 82.1 80.7 79.2
      77.7 76.0 74.3 72.5 70.6 68.5 66.4 64.1 61.7 59.1
      56.4 53.5 50.3 46.9 43.2 39.1 34.5 29.4 23.9 18.6
      16.0 14.8 13.9 12.8 12.8 19.4 25.2 30.1 34.1 37.7
      40.9 43.8 46.4 48.8 51.1 53.2 55.1 56.9 58.6 60.1
      61.6 62.9 64.2 65.3 66.4 67.4 68.4 69.2 70.0 70.7
      71.3 71.9 72.5 72.9 73.3 73.7 74.0 74.3 74.5 74.7
      74.9 75.0 75.1 75.1 75.1 75.1 75.1 75.1 75.0 75.0

 HEAD WILL BE SAVED ON UNIT   51 AT END OF TIME STEP   30, STRESS PERIOD   25
1
  VOLUMETRIC BUDGET FOR ENTIRE MODEL AT END OF TIME STEP   30, STRESS PERIOD  25
  ------------------------------------------------------------------------------

     CUMULATIVE VOLUMES      L**3       RATES FOR THIS TIME STEP      L**3/T
     ------------------                 ------------------------

           IN:                                      IN:
           ---                                      ---
             STORAGE     =    90091544.0000               STORAGE     =           0.7939
       CONSTANT HEAD     =           0.0000         CONSTANT HEAD     =           0.0000
               WELLS     =           0.0000                 WELLS     =           0.0000
     HEAD DEP BOUNDS     =           0.0000       HEAD DEP BOUNDS     =           0.0000
      STREAM LEAKAGE     =    26197308.0000        STREAM LEAKAGE     =       6.9268E-02

                TOTAL IN =   116288848.0000                  TOTAL IN =           0.8632

          OUT:                                     OUT:
          ----                                     ----
             STORAGE     =     3107309.0000               STORAGE     =           0.0000
       CONSTANT HEAD     =           0.0000         CONSTANT HEAD     =           0.0000
               WELLS     =    96803008.0000                 WELLS     =           0.8539
     HEAD DEP BOUNDS     =    16378656.0000       HEAD DEP BOUNDS     =       9.2592E-03
      STREAM LEAKAGE     =           0.0000        STREAM LEAKAGE     =           0.0000

               TOTAL OUT =   116288976.0000                 TOTAL OUT =           0.8632

                IN - OUT =        -128.0000                  IN - OUT =           0.0000

     PERCENT DISCREPANCY =          -0.00         PERCENT DISCREPANCY =           0.00






         TIME SUMMARY AT END OF TIME STEP   30 IN STRESS PERIOD   25
                    SECONDS     MINUTES      HOURS       DAYS        YEARS
                    -----------------------------------------------------------
   TIME STEP LENGTH 2.49961E+05  4166.0      69.434      2.8931     7.92080E-03
 STRESS PERIOD TIME 2.59200E+06  43200.      720.00      30.000     8.21355E-02
         TOTAL TIME 6.47999E+07 1.08000E+06  18000.      750.00      2.0534    
1
1
                            STRESS PERIOD NO.   26, LENGTH =   2592000.    
                            -----------------------------------------------

                              NUMBER OF TIME STEPS =    30

                               MULTIPLIER FOR DELT =     1.100

                            INITIAL TIME STEP SIZE =   15757.40    

 REUSING NON-PARAMETER WELLS FROM LAST STRESS PERIOD

      1 WELL 

 REUSING NON-PARAMETER GHB CELLS FROM LAST STRESS PERIOD

      7 GHB CELLS



 CLASSIFICATION & COUNT OF STREAM SEGMENTS BASED ON SOURCE OF INFLOW:

                HEADWATER     DIVERSION     RECEIVES TRIBUTARY FLOW
                ---------     ---------     -----------------------
                     1              0               0



                    INPUT DATA FOR EACH STREAM SEGMENT
 ---------------------------------------------------------------------------------------------

 SEGMENT    SEG.     INFLOW   OVERLAND   STREAM    STREAM   ICALC  OUTFLOW  DIVERSION PRIORITY
    NO.    LENGTH     RATE     RUNOFF      ET       PPT.    METH.  TO SEG.  FROM SEG.    NO.

      1  2.000E+04 5.120E-01 0.000E+00 0.000E+00 0.000E+00    2        0        0        0


         STREAMBED PROPERTIES AND STREAM DIMENSIONS

 SEGMENT     BED HYD. COND.      BED THICKNESS     ELEV.-TOP OF BED     WIDTH OF STREAM     DEPTH OF STREAM    STREAM ROUGHNESS
    No.     UPPER     LOWER     UPPER     LOWER     UPPER     LOWER     UPPER     LOWER     UPPER     LOWER   CHANNEL      BANK

     1  3.500E-07 3.500E-07                                                                                 3.000E-02 4.000E-02

  EIGHT POINT CROSS-SECTION DATA FOR SEGMENTS WITH ICALC = 2
    X VALUES X VALUES START FROM LEFT SIDE LOOKING DOWNSTREAM

     SEGMENT NO.        X1        X2        X3        X4        X5        X6        X7        X8
            1      0.000E+00 2.000E+00 4.000E+00 6.000E+00 8.000E+00 1.000E+01 1.200E+01 1.400E+01

    Z VALUES ARE RELATIVE TO STREAMBED ELEVATION

     SEGMENT NO.          Z1        Z2        Z3        Z4        Z5        Z6        Z7        Z8
            1      6.000E+00 4.500E+00 3.500E+00 0.000E+00 3.000E-01 3.500E+00 4.500E+00 6.000E+00



 
 SOLVING FOR HEAD 
                                                   Max.-Head-Change                         Max.-Flux-Residual
  Residual-Control   Outer-Iter.   Inner-Iter.     Column Row Layer    Maximum-Head-Change  Column Row Layer    Maximum-Flux-Residual          L2-NORM 
          0                 1           2            50    3     1      -0.5365456122E+00      50    3    1        -0.2269230641E+00      0.2947044255E+00
          0                 2           2            50    3     1       0.5217168990E-01      50    3    1         0.2234975876E-01      0.2858767937E-01
          0                 3           2            50    3     1      -0.4663488455E-02      50    3    1        -0.2019747045E-02      0.2587669645E-02
          0                 4           2            50    3     1       0.3697561525E-03      50    3    1         0.1617205340E-03      0.2072526049E-03
          0                 5           1            50    3     1      -0.2574649440E-04      50    3    1        -0.1136918158E-04      0.1457410184E-04
          0                 6           1            50    3     1       0.1545587815E-05      50    3    1         0.6889254692E-06      0.8832531829E-06
          0                 7           1            50    3     1      -0.7808623502E-07      50    3    1        -0.3512837449E-07      0.4503995784E-07

    ------------------------------------------------
       NWT REQUIRED            7 OUTER ITERATIONS 
       AND A TOTAL OF         11 INNER ITERATIONS.
    ------------------------------------------------

 NO OUTPUT CONTROL FOR STRESS PERIOD   26   TIME STEP    1
 
 WELLS WITH REDUCED PUMPING FOR STRESS PERIOD    26 TIME STEP     1
   LAY   ROW   COL         APPL.Q          ACT.Q        GW-HEAD       CELL-BOT
     1     3    50  -0.137839E+01  -0.606481E+00   0.515098E+01   0.000000E+00
     1     5    55  -0.137839E+01  -0.495288E+00   0.449633E+01   0.000000E+00
 
 
 SOLVING FOR HEAD 
                                                   Max.-Head-Change                         Max.-Flux-Residual
  Residual-Control   Outer-Iter.   Inner-Iter.     Column Row Layer    Maximum-Head-Change  Column Row Layer    Maximum-Flux-Residual          L2-NORM 
          0                 1           2            50    3     1      -0.2864551316E+00      50    3    1        -0.1123170816E+00      0.1502251347E+00
          0                 2           2            50    3     1       0.2730574181E-01      50    3    1         0.1090560758E-01      0.1444832000E-01
          0                 3           2            50    3     1      -0.2431660809E-02      50    3    1        -0.9851191039E-03      0.1307275275E-02
          0                 4           2            50    3     1       0.1923770814E-03      50    3    1         0.7888048504E-04      0.1048300479E-03
          0                 5           1            50    3     1      -0.1337617979E-04      50    3    1        -0.5545392272E-05      0.7378030717E-05
          0                 6           1            50    3     1       0.8023027575E-06      50    3    1         0.3360276258E-06      0.4473783235E-06

    ------------------------------------------------
       NWT REQUIRED            6 OUTER ITERATIONS 
       AND A TOTAL OF         10 INNER ITERATIONS.
    ------------------------------------------------

 NO OUTPUT CONTROL FOR STRESS PERIOD   26   TIME STEP    2
 
 WELLS WITH REDUCED PUMPING FOR STRESS PERIOD    26 TIME STEP     2
   LAY   ROW   COL         APPL.Q          ACT.Q        GW-HEAD       CELL-BOT
     1     3    50  -0.137991E+01  -0.559366E+00   0.488958E+01   0.000000E+00
     1     5    55  -0.137991E+01  -0.456437E+00   0.427531E+01   0.000000E+00
 
 
 SOLVING FOR HEAD 
                                                   Max.-Head-Change                         Max.-Flux-Residual
  Residual-Control   Outer-Iter.   Inner-Iter.     Column Row Layer    Maximum-Head-Change  Column Row Layer    Maximum-Flux-Residual          L2-NORM 
          0                 1           2            50    3     1      -0.1524136246E+00      50    3    1        -0.5437432919E-01      0.8054782973E-01
          0                 2           2            50    3     1       0.1447117129E-01      50    3    1         0.5308789579E-02      0.7750442953E-02
          0                 3           2            50    3     1      -0.1279793760E-02      50    3    1        -0.4790482863E-03      0.7010729616E-03
          0                 4           1            50    3     1       0.1008402111E-03      50    3    1         0.3836223407E-04      0.5640040089E-04
          0                 5           1            50    3     1      -0.6992184362E-05      50    3    1        -0.2696870295E-05      0.3979264726E-05
          0                 6           1            50    3     1       0.4186771740E-06      50    3    1         0.1634184557E-06      0.2416610493E-06

    ------------------------------------------------
       NWT REQUIRED            6 OUTER ITERATIONS 
       AND A TOTAL OF          9 INNER ITERATIONS.
    ------------------------------------------------

 NO OUTPUT CONTROL FOR STRESS PERIOD   26   TIME STEP    3
 
 WELLS WITH REDUCED PUMPING FOR STRESS PERIOD    26 TIME STEP     3
   LAY   ROW   COL         APPL.Q          ACT.Q        GW-HEAD       CELL-BOT
     1     3    50  -0.138011E+01  -0.534232E+00   0.475045E+01   0.000000E+00
     1     5    55  -0.138011E+01  -0.435510E+00   0.415583E+01   0.000000E+00
 
 
 SOLVING FOR HEAD 
                                                   Max.-Head-Change                         Max.-Flux-Residual
  Residual-Control   Outer-Iter.   Inner-Iter.     Column Row Layer    Maximum-Head-Change  Column Row Layer    Maximum-Flux-Residual          L2-NORM 
          0                 1           2            50    3     1      -0.8272036467E-01      50    3    1        -0.2619813611E-01      0.5093968253E-01
          0                 2           2            50    3     1       0.7767769713E-02      50    3    1         0.2578585644E-02      0.4880055038E-02
          0                 3           2            50    3     1      -0.6822523565E-03      50    3    1        -0.2324635679E-03      0.4427498566E-03
          0                 4           1            50    3     1       0.5353235095E-04      50    3    1         0.1861738601E-04      0.3587632732E-04
          0                 5           1            50    3     1      -0.3700890823E-05      50    3    1        -0.1308778802E-05      0.2545666605E-05
          0                 6           1            50    3     1       0.2211728947E-06      50    3    1         0.7930534457E-07      0.1551653997E-06

    ------------------------------------------------
       NWT REQUIRED            6 OUTER ITERATIONS 
       AND A TOTAL OF          9 INNER ITERATIONS.
    ------------------------------------------------

 NO OUTPUT CONTROL FOR STRESS PERIOD   26   TIME STEP    4
 
 WELLS WITH REDUCED PUMPING FOR STRESS PERIOD    26 TIME STEP     4
   LAY   ROW   COL         APPL.Q          ACT.Q        GW-HEAD       CELL-BOT
     1     3    50  -0.137993E+01  -0.520543E+00   0.467486E+01   0.000000E+00
     1     5    55  -0.137993E+01  -0.424039E+00   0.409030E+01   0.000000E+00
 
 
 SOLVING FOR HEAD 
                                                   Max.-Head-Change                         Max.-Flux-Residual
  Residual-Control   Outer-Iter.   Inner-Iter.     Column Row Layer    Maximum-Head-Change  Column Row Layer    Maximum-Flux-Residual          L2-NORM 
          0                 1           2            50    2     1      -0.5380298649E-01      50    3    1        -0.1303732394E-01      0.4033648195E-01
          0                 2           2            50    2     1       0.5287862519E-02      50    3    1         0.1291871780E-02      0.3860828802E-02
          0                 3           2            50    2     1      -0.4703372747E-03      50    3    1        -0.1163841738E-03      0.3524294489E-03
          0                 4           1            50    2     1       0.3728318920E-04      50    3    1         0.9321553024E-05      0.2881414591E-04
          0                 5           1            50    2     1      -0.2595901518E-05      50    3    1        -0.6552780836E-06      0.2058387270E-05
          0                 6           1            50    2     1       0.1558512551E-06      50    3    1         0.3970586476E-07      0.1260033187E-06

    ------------------------------------------------
       NWT REQUIRED            6 OUTER ITERATIONS 
       AND A TOTAL OF          9 INNER ITERATIONS.
    ------------------------------------------------

 NO OUTPUT CONTROL FOR STRESS PERIOD   26   TIME STEP    5
 
 WELLS WITH REDUCED PUMPING FOR STRESS PERIOD    26 TIME STEP     5
   LAY   ROW   COL         APPL.Q          ACT.Q        GW-HEAD       CELL-BOT
     1     3    50  -0.138009E+01  -0.512752E+00   0.463112E+01   0.000000E+00
     1     5    55  -0.138009E+01  -0.417510E+00   0.405231E+01   0.000000E+00
 
 
 SOLVING FOR HEAD 
                                                   Max.-Head-Change                         Max.-Flux-Residual
  Residual-Control   Outer-Iter.   Inner-Iter.     Column Row Layer    Maximum-Head-Change  Column Row Layer    Maximum-Flux-Residual          L2-NORM 
          0                 1           2            50    2     1      -0.4827100725E-01      50    2    1        -0.7638528080E-02      0.3661102962E-01
          0                 2           2            50    2     1       0.4741151328E-02      50    2    1         0.7609427512E-03      0.3521406943E-02
          0                 3           2            50    2     1      -0.4216984496E-03      50    2    1        -0.6851487383E-04      0.3229160714E-03
          0                 4           1            50    2     1       0.3342515042E-04      50    2    1         0.5487797374E-05      0.2654771619E-04
          0                 5           1            50    2     1      -0.2327162088E-05      50    2    1        -0.3857883952E-06      0.1906005408E-05
          0                 6           1            50    2     1       0.1397125358E-06      50    2    1         0.2337724439E-07      0.1171233352E-06

    ------------------------------------------------
       NWT REQUIRED            6 OUTER ITERATIONS 
       AND A TOTAL OF          9 INNER ITERATIONS.
    ------------------------------------------------

 NO OUTPUT CONTROL FOR STRESS PERIOD   26   TIME STEP    6
 
 WELLS WITH REDUCED PUMPING FOR STRESS PERIOD    26 TIME STEP     6
   LAY   ROW   COL         APPL.Q          ACT.Q        GW-HEAD       CELL-BOT
     1     3    50  -0.137992E+01  -0.507789E+00   0.460378E+01   0.000000E+00
     1     5    55  -0.137992E+01  -0.413374E+00   0.402867E+01   0.000000E+00
 
 
 SOLVING FOR HEAD 
                                                   Max.-Head-Change                         Max.-Flux-Residual
  Residual-Control   Outer-Iter.   Inner-Iter.     Column Row Layer    Maximum-Head-Change  Column Row Layer    Maximum-Flux-Residual          L2-NORM 
          0                 1           2            50    2     1      -0.4324993321E-01      50    2    1        -0.6230519435E-02      0.3514469681E-01
          0                 2           2            50    2     1       0.4243001272E-02      50    2    1         0.6204685824E-03      0.3394471168E-02
          0                 3           2            50    2     1      -0.3775045844E-03      50    2    1        -0.5586866160E-04      0.3122533992E-03
          0                 4           1            50    2     1       0.2992613934E-04      50    2    1         0.4474866227E-05      0.2577128561E-04
          0                 5           1            50    2     1      -0.2083633947E-05      50    2    1        -0.3145801170E-06      0.1857544853E-05
          0                 6           1            50    2     1       0.1250924288E-06      50    2    1         0.1906230501E-07      0.1145244026E-06

    ------------------------------------------------
       NWT REQUIRED            6 OUTER ITERATIONS 
       AND A TOTAL OF          9 INNER ITERATIONS.
    ------------------------------------------------

 NO OUTPUT CONTROL FOR STRESS PERIOD   26   TIME STEP    7
 
 WELLS WITH REDUCED PUMPING FOR STRESS PERIOD    26 TIME STEP     7
   LAY   ROW   COL         APPL.Q          ACT.Q        GW-HEAD       CELL-BOT
     1     3    50  -0.138004E+01  -0.504375E+00   0.458444E+01   0.000000E+00
     1     5    55  -0.138004E+01  -0.410568E+00   0.401218E+01   0.000000E+00
 
 
 SOLVING FOR HEAD 
                                                   Max.-Head-Change                         Max.-Flux-Residual
  Residual-Control   Outer-Iter.   Inner-Iter.     Column Row Layer    Maximum-Head-Change  Column Row Layer    Maximum-Flux-Residual          L2-NORM 
          0                 1           2            50    2     1      -0.3904765230E-01      50    2    1        -0.5075539718E-02      0.3438309432E-01
          0                 2           2            50    2     1       0.3824202136E-02      50    2    1         0.5055009031E-03      0.3330591017E-02
          0                 3           2            50    2     1      -0.3402111284E-03      50    2    1        -0.4551626737E-04      0.3070666088E-03
          0                 4           1            50    2     1       0.2698574420E-04      50    2    1         0.3645682630E-05      0.2542646215E-04
          0                 5           1            50    2     1      -0.1879674760E-05      50    2    1        -0.2562890327E-06      0.1839176786E-05
          0                 6           1            50    2     1       0.1128663241E-06      50    2    1         0.1553009768E-07      0.1137548569E-06

    ------------------------------------------------
       NWT REQUIRED            6 OUTER ITERATIONS 
       AND A TOTAL OF          9 INNER ITERATIONS.
    ------------------------------------------------

 NO OUTPUT CONTROL FOR STRESS PERIOD   26   TIME STEP    8
 
 WELLS WITH REDUCED PUMPING FOR STRESS PERIOD    26 TIME STEP     8
   LAY   ROW   COL         APPL.Q          ACT.Q        GW-HEAD       CELL-BOT
     1     3    50  -0.138006E+01  -0.501715E+00   0.456951E+01   0.000000E+00
     1     5    55  -0.138006E+01  -0.408391E+00   0.399949E+01   0.000000E+00
 
 
 SOLVING FOR HEAD 
                                                   Max.-Head-Change                         Max.-Flux-Residual
  Residual-Control   Outer-Iter.   Inner-Iter.     Column Row Layer    Maximum-Head-Change  Column Row Layer    Maximum-Flux-Residual          L2-NORM 
          0                 1           2            50    1     1      -0.3667387964E-01      50    2    1        -0.4166503907E-02      0.3390619432E-01
          0                 2           2            50    1     1       0.3623261920E-02      50    2    1         0.4150952576E-03      0.3289907491E-02
          0                 3           2            50    1     1      -0.3229438521E-03      50    2    1        -0.3737462539E-04      0.3037415909E-03
          0                 4           1            50    1     1       0.2562738259E-04      50    2    1         0.2993578267E-05      0.2523191206E-04
          0                 5           1            50    1     1      -0.1784880552E-05      50    2    1        -0.2104464687E-06      0.1831761063E-05
          0                 6           1            50    1     1       0.1071593195E-06      50    2    1         0.1275222022E-07      0.1136762077E-06

    ------------------------------------------------
       NWT REQUIRED            6 OUTER ITERATIONS 
       AND A TOTAL OF          9 INNER ITERATIONS.
    ------------------------------------------------

 NO OUTPUT CONTROL FOR STRESS PERIOD   26   TIME STEP    9
 
 WELLS WITH REDUCED PUMPING FOR STRESS PERIOD    26 TIME STEP     9
   LAY   ROW   COL         APPL.Q          ACT.Q        GW-HEAD       CELL-BOT
     1     3    50  -0.137994E+01  -0.499473E+00   0.455719E+01   0.000000E+00
     1     5    55  -0.137994E+01  -0.406548E+00   0.398897E+01   0.000000E+00
 
 
 SOLVING FOR HEAD 
                                                   Max.-Head-Change                         Max.-Flux-Residual
  Residual-Control   Outer-Iter.   Inner-Iter.     Column Row Layer    Maximum-Head-Change  Column Row Layer    Maximum-Flux-Residual          L2-NORM 
          0                 1           2            50    1     1      -0.3681358135E-01      50    1    1        -0.3554442595E-02      0.3357292869E-01
          0                 2           2            50    1     1       0.3635291266E-02      50    1    1         0.3549329158E-03      0.3260809202E-02
          0                 3           2            50    1     1      -0.3239731382E-03      50    1    1        -0.3194915338E-04      0.3014541801E-03
          0                 4           1            50    1     1       0.2570691550E-04      50    1    1         0.2559086106E-05      0.2511888714E-04
          0                 5           1            50    1     1      -0.1790235109E-05      50    1    1        -0.1798484943E-06      0.1830134214E-05
          0                 6           1            50    1     1       0.1074722754E-06      50    1    1         0.1089499935E-07      0.1139668885E-06

    ------------------------------------------------
       NWT REQUIRED            6 OUTER ITERATIONS 
       AND A TOTAL OF          9 INNER ITERATIONS.
    ------------------------------------------------

 NO OUTPUT CONTROL FOR STRESS PERIOD   26   TIME STEP   10
 
 WELLS WITH REDUCED PUMPING FOR STRESS PERIOD    26 TIME STEP    10
   LAY   ROW   COL         APPL.Q          ACT.Q        GW-HEAD       CELL-BOT
     1     3    50  -0.138003E+01  -0.497518E+00   0.454604E+01   0.000000E+00
     1     5    55  -0.138003E+01  -0.404939E+00   0.397944E+01   0.000000E+00
 
 
 SOLVING FOR HEAD 
                                                   Max.-Head-Change                         Max.-Flux-Residual
  Residual-Control   Outer-Iter.   Inner-Iter.     Column Row Layer    Maximum-Head-Change  Column Row Layer    Maximum-Flux-Residual          L2-NORM 
          0                 1           2            50    1     1      -0.3655039312E-01      50    1    1        -0.3243774198E-02      0.3332062167E-01
          0                 2           2            50    1     1       0.3607422754E-02      50    1    1         0.3238104436E-03      0.3236689875E-02
          0                 3           2            50    1     1      -0.3214158443E-03      50    1    1        -0.2914866723E-04      0.2995761385E-03
          0                 4           1            50    1     1       0.2550053395E-04      50    1    1         0.2334762766E-05      0.2503906016E-04
          0                 5           1            50    1     1      -0.1775581730E-05      50    1    1        -0.1640613491E-06      0.1831035043E-05
          0                 6           1            50    1     1       0.1065802247E-06      50    1    1         0.9937367762E-08      0.1144335049E-06

    ------------------------------------------------
       NWT REQUIRED            6 OUTER ITERATIONS 
       AND A TOTAL OF          9 INNER ITERATIONS.
    ------------------------------------------------

 NO OUTPUT CONTROL FOR STRESS PERIOD   26   TIME STEP   11
 
 WELLS WITH REDUCED PUMPING FOR STRESS PERIOD    26 TIME STEP    11
   LAY   ROW   COL         APPL.Q          ACT.Q        GW-HEAD       CELL-BOT
     1     3    50  -0.138005E+01  -0.495669E+00   0.453564E+01   0.000000E+00
     1     5    55  -0.138005E+01  -0.403407E+00   0.397048E+01   0.000000E+00
 
 
 SOLVING FOR HEAD 
                                                   Max.-Head-Change                         Max.-Flux-Residual
  Residual-Control   Outer-Iter.   Inner-Iter.     Column Row Layer    Maximum-Head-Change  Column Row Layer    Maximum-Flux-Residual          L2-NORM 
          0                 1           2            50    1     1      -0.3603420107E-01      50    1    1        -0.2927949419E-02      0.3311563431E-01
          0                 2           2            50    1     1       0.3554737704E-02      50    1    1         0.2922277392E-03      0.3216941936E-02
          0                 3           2            50    1     1      -0.3166186063E-03      50    1    1        -0.2630621853E-04      0.2980426321E-03
          0                 4           1            50    1     1       0.2511453215E-04      50    1    1         0.2107082523E-05      0.2498391012E-04
          0                 5           1            50    1     1      -0.1748271793E-05      50    1    1        -0.1480340487E-06      0.1833656729E-05
          0                 6           1            50    1     1       0.1049226007E-06      50    1    1         0.8964960885E-08      0.1150212465E-06

    ------------------------------------------------
       NWT REQUIRED            6 OUTER ITERATIONS 
       AND A TOTAL OF          9 INNER ITERATIONS.
    ------------------------------------------------

 NO OUTPUT CONTROL FOR STRESS PERIOD   26   TIME STEP   12
 
 WELLS WITH REDUCED PUMPING FOR STRESS PERIOD    26 TIME STEP    12
   LAY   ROW   COL         APPL.Q          ACT.Q        GW-HEAD       CELL-BOT
     1     3    50  -0.137995E+01  -0.493874E+00   0.452576E+01   0.000000E+00
     1     5    55  -0.137995E+01  -0.401895E+00   0.396182E+01   0.000000E+00
 
 
 SOLVING FOR HEAD 
                                                   Max.-Head-Change                         Max.-Flux-Residual
  Residual-Control   Outer-Iter.   Inner-Iter.     Column Row Layer    Maximum-Head-Change  Column Row Layer    Maximum-Flux-Residual          L2-NORM 
          0                 1           2            50    1     1      -0.3539691104E-01      50    1    1        -0.2624301060E-02      0.3294697246E-01
          0                 2           2            50    1     1       0.3489482682E-02      50    1    1         0.2618983584E-03      0.3200236642E-02
          0                 3           2            50    1     1      -0.3106782380E-03      50    1    1        -0.2357623424E-04      0.2967585683E-03
          0                 4           1            50    1     1       0.2463733170E-04      50    1    1         0.1888413348E-05      0.2494591190E-04
          0                 5           1            50    1     1      -0.1714505803E-05      50    1    1        -0.1326353929E-06      0.1837435333E-05
          0                 6           1            50    1     1       0.1028717911E-06      50    1    1         0.8030393517E-08      0.1156919812E-06

    ------------------------------------------------
       NWT REQUIRED            6 OUTER ITERATIONS 
       AND A TOTAL OF          9 INNER ITERATIONS.
    ------------------------------------------------

 NO OUTPUT CONTROL FOR STRESS PERIOD   26   TIME STEP   13
 
 WELLS WITH REDUCED PUMPING FOR STRESS PERIOD    26 TIME STEP    13
   LAY   ROW   COL         APPL.Q          ACT.Q        GW-HEAD       CELL-BOT
     1     3    50  -0.137996E+01  -0.492131E+00   0.451594E+01   0.000000E+00
     1     5    55  -0.137996E+01  -0.400442E+00   0.395331E+01   0.000000E+00
 
 
 SOLVING FOR HEAD 
                                                   Max.-Head-Change                         Max.-Flux-Residual
  Residual-Control   Outer-Iter.   Inner-Iter.     Column Row Layer    Maximum-Head-Change  Column Row Layer    Maximum-Flux-Residual          L2-NORM 
          0                 1           2            50    1     1      -0.3473316362E-01      50    1    1        -0.2343686082E-02      0.3279392527E-01
          0                 2           2            50    1     1       0.3421679864E-02      50    1    1         0.2338890449E-03      0.3186506486E-02
          0                 3           2            50    1     1      -0.3044977259E-03      50    1    1        -0.2105489007E-04      0.2957868289E-03
          0                 4           1            50    1     1       0.2414003554E-04      50    1    1         0.1686457591E-05      0.2493284176E-04
          0                 5           1            50    1     1      -0.1679179355E-05      50    1    1        -0.1184063995E-06      0.1842875474E-05
          0                 6           1            50    1     1       0.1007195435E-06       4    4    1        -0.8037417842E-08      0.1164675789E-06

    ------------------------------------------------
       NWT REQUIRED            6 OUTER ITERATIONS 
       AND A TOTAL OF          9 INNER ITERATIONS.
    ------------------------------------------------

 NO OUTPUT CONTROL FOR STRESS PERIOD   26   TIME STEP   14
 
 WELLS WITH REDUCED PUMPING FOR STRESS PERIOD    26 TIME STEP    14
   LAY   ROW   COL         APPL.Q          ACT.Q        GW-HEAD       CELL-BOT
     1     3    50  -0.138003E+01  -0.490430E+00   0.450623E+01   0.000000E+00
     1     5    55  -0.138003E+01  -0.399017E+00   0.394486E+01   0.000000E+00
 
 
 SOLVING FOR HEAD 
                                                   Max.-Head-Change                         Max.-Flux-Residual
  Residual-Control   Outer-Iter.   Inner-Iter.     Column Row Layer    Maximum-Head-Change  Column Row Layer    Maximum-Flux-Residual          L2-NORM 
          0                 1           2            51    1     1      -0.3558015783E-01      50    1    1        -0.2090806585E-02      0.3264913002E-01
          0                 2           2            51    1     1       0.3494769096E-02      50    1    1         0.2086580797E-03      0.3172966817E-02
          0                 3           2            51    1     1      -0.3105020848E-03      50    1    1        -0.1878355580E-04      0.2948340650E-03
          0                 4           1            51    1     1       0.2460424440E-04      50    1    1         0.1504527947E-05      0.2492139065E-04
          0                 5           1            51    1     1      -0.1712095120E-05       2    4    1         0.1117612953E-06      0.1848308769E-05
          0                 6           1            51    1     1       0.1027398810E-06       2    4    1        -0.8274898988E-08      0.1172411209E-06

    ------------------------------------------------
       NWT REQUIRED            6 OUTER ITERATIONS 
       AND A TOTAL OF          9 INNER ITERATIONS.
    ------------------------------------------------

 NO OUTPUT CONTROL FOR STRESS PERIOD   26   TIME STEP   15
 
 WELLS WITH REDUCED PUMPING FOR STRESS PERIOD    26 TIME STEP    15
   LAY   ROW   COL         APPL.Q          ACT.Q        GW-HEAD       CELL-BOT
     1     3    50  -0.138003E+01  -0.488731E+00   0.449668E+01   0.000000E+00
     1     5    55  -0.138003E+01  -0.397584E+00   0.393647E+01   0.000000E+00
 
 
 SOLVING FOR HEAD 
                                                   Max.-Head-Change                         Max.-Flux-Residual
  Residual-Control   Outer-Iter.   Inner-Iter.     Column Row Layer    Maximum-Head-Change  Column Row Layer    Maximum-Flux-Residual          L2-NORM 
          0                 1           2            51    1     1      -0.3738175891E-01      51    1    1        -0.1947628254E-02      0.3251410057E-01
          0                 2           2            51    1     1       0.3666619421E-02      51    1    1         0.1945389360E-03      0.3159738489E-02
          0                 3           2            51    1     1      -0.3255072532E-03      51    1    1        -0.1751119806E-04      0.2938459734E-03
          0                 4           1            51    1     1       0.2578042415E-04      51    1    1         0.1402623949E-05      0.2490287428E-04
          0                 5           1            51    1     1      -0.1793071142E-05       2    4    1         0.1140898505E-06      0.1852919025E-05
          0                 6           1            51    1     1       0.1075642032E-06       2    4    1        -0.8487663905E-08      0.1179586562E-06

    ------------------------------------------------
       NWT REQUIRED            6 OUTER ITERATIONS 
       AND A TOTAL OF          9 INNER ITERATIONS.
    ------------------------------------------------

 NO OUTPUT CONTROL FOR STRESS PERIOD   26   TIME STEP   16
 
 WELLS WITH REDUCED PUMPING FOR STRESS PERIOD    26 TIME STEP    16
   LAY   ROW   COL         APPL.Q          ACT.Q        GW-HEAD       CELL-BOT
     1     3    50  -0.138003E+01  -0.487033E+00   0.448711E+01   0.000000E+00
     1     5    55  -0.138003E+01  -0.396140E+00   0.392800E+01   0.000000E+00
 
 
 SOLVING FOR HEAD 
                                                   Max.-Head-Change                         Max.-Flux-Residual
  Residual-Control   Outer-Iter.   Inner-Iter.     Column Row Layer    Maximum-Head-Change  Column Row Layer    Maximum-Flux-Residual          L2-NORM 
          0                 1           2            51    1     1      -0.3908032101E-01      51    1    1        -0.1860467587E-02      0.3238942682E-01
          0                 2           2            51    1     1       0.3827250037E-02      51    1    1         0.1857971676E-03      0.3147005620E-02
          0                 3           2            51    1     1      -0.3394361452E-03      51    1    1        -0.1672476112E-04      0.2928552384E-03
          0                 4           1            51    1     1       0.2686679954E-04      51    1    1         0.1339627382E-05      0.2488111685E-04
          0                 5           1            51    1     1      -0.1867372779E-05       2    4    1         0.1162500958E-06      0.1856936667E-05
          0                 6           1            51    1     1       0.1119690441E-06       2    4    1        -0.8687255360E-08      0.1186278886E-06

    ------------------------------------------------
       NWT REQUIRED            6 OUTER ITERATIONS 
       AND A TOTAL OF          9 INNER ITERATIONS.
    ------------------------------------------------

 NO OUTPUT CONTROL FOR STRESS PERIOD   26   TIME STEP   17
 
 WELLS WITH REDUCED PUMPING FOR STRESS PERIOD    26 TIME STEP    17
   LAY   ROW   COL         APPL.Q          ACT.Q        GW-HEAD       CELL-BOT
     1     3    50  -0.137998E+01  -0.485312E+00   0.447751E+01   0.000000E+00
     1     5    55  -0.137998E+01  -0.394664E+00   0.391942E+01   0.000000E+00
 
 
 SOLVING FOR HEAD 
                                                   Max.-Head-Change                         Max.-Flux-Residual
  Residual-Control   Outer-Iter.   Inner-Iter.     Column Row Layer    Maximum-Head-Change  Column Row Layer    Maximum-Flux-Residual          L2-NORM 
          0                 1           2            51    1     1      -0.4071367430E-01      51    1    1        -0.1768443439E-02      0.3226790572E-01
          0                 2           2            51    1     1       0.3980299077E-02      51    1    1         0.1765824065E-03      0.3135233149E-02
          0                 3           2            51    1     1      -0.3526008405E-03      51    1    1        -0.1589563144E-04      0.2919944770E-03
          0                 4           1            51    1     1       0.2788714772E-04      51    1    1         0.1273212058E-05      0.2486980349E-04
          0                 5           1            51    1     1      -0.1936500930E-05       2    4    1         0.1182864047E-06      0.1861176025E-05
          0                 6           1            51    1     1       0.1160368401E-06       2    4    1        -0.8875236546E-08      0.1192792325E-06

    ------------------------------------------------
       NWT REQUIRED            6 OUTER ITERATIONS 
       AND A TOTAL OF          9 INNER ITERATIONS.
    ------------------------------------------------

 NO OUTPUT CONTROL FOR STRESS PERIOD   26   TIME STEP   18
 
 WELLS WITH REDUCED PUMPING FOR STRESS PERIOD    26 TIME STEP    18
   LAY   ROW   COL         APPL.Q          ACT.Q        GW-HEAD       CELL-BOT
     1     3    50  -0.137998E+01  -0.483568E+00   0.446769E+01   0.000000E+00
     1     5    55  -0.137998E+01  -0.393156E+00   0.391058E+01   0.000000E+00
 
 
 SOLVING FOR HEAD 
                                                   Max.-Head-Change                         Max.-Flux-Residual
  Residual-Control   Outer-Iter.   Inner-Iter.     Column Row Layer    Maximum-Head-Change  Column Row Layer    Maximum-Flux-Residual          L2-NORM 
          0                 1           2            51    1     1      -0.4232154669E-01      51    1    1        -0.1675138614E-02      0.3214764621E-01
          0                 2           2            51    1     1       0.4129588253E-02      51    1    1         0.1672512180E-03      0.3123300506E-02
          0                 3           2            51    1     1      -0.3653298743E-03      51    1    1        -0.1505591720E-04      0.2910746063E-03
          0                 4           1            51    1     1       0.2886643719E-04      69    4    1        -0.1267456602E-05      0.2484924231E-04
          0                 5           1            51    1     1      -0.2001992266E-05       7    4    1         0.1202999584E-06      0.1863983305E-05
          0                 6           1            51    1     1       0.1198495886E-06       2    4    1        -0.9050921790E-08      0.1198027521E-06

    ------------------------------------------------
       NWT REQUIRED            6 OUTER ITERATIONS 
       AND A TOTAL OF          9 INNER ITERATIONS.
    ------------------------------------------------

 NO OUTPUT CONTROL FOR STRESS PERIOD   26   TIME STEP   19
 
 WELLS WITH REDUCED PUMPING FOR STRESS PERIOD    26 TIME STEP    19
   LAY   ROW   COL         APPL.Q          ACT.Q        GW-HEAD       CELL-BOT
     1     3    50  -0.137997E+01  -0.481785E+00   0.445764E+01   0.000000E+00
     1     5    55  -0.137997E+01  -0.391600E+00   0.390144E+01   0.000000E+00
 
 
 SOLVING FOR HEAD 
                                                   Max.-Head-Change                         Max.-Flux-Residual
  Residual-Control   Outer-Iter.   Inner-Iter.     Column Row Layer    Maximum-Head-Change  Column Row Layer    Maximum-Flux-Residual          L2-NORM 
          0                 1           2            51    1     1      -0.4394320627E-01      51    1    1        -0.1583274203E-02      0.3202653291E-01
          0                 2           2            51    1     1       0.4278893398E-02      51    1    1         0.1580737272E-03      0.3111447171E-02
          0                 3           2            51    1     1      -0.3779473852E-03      51    1    1        -0.1422994954E-04      0.2901605012E-03
          0                 4           1            51    1     1       0.2982916050E-04      69    4    1        -0.1279725636E-05      0.2482727239E-04
          0                 5           1            51    1     1      -0.2065289920E-05       7    4    1         0.1222487036E-06      0.1865858814E-05
          0                 6           1            51    1     1       0.1234806398E-06       7    4    1        -0.9215522567E-08      0.1202197783E-06

    ------------------------------------------------
       NWT REQUIRED            6 OUTER ITERATIONS 
       AND A TOTAL OF          9 INNER ITERATIONS.
    ------------------------------------------------

 NO OUTPUT CONTROL FOR STRESS PERIOD   26   TIME STEP   20
 
 WELLS WITH REDUCED PUMPING FOR STRESS PERIOD    26 TIME STEP    20
   LAY   ROW   COL         APPL.Q          ACT.Q        GW-HEAD       CELL-BOT
     1     3    50  -0.138002E+01  -0.479959E+00   0.444723E+01   0.000000E+00
     1     5    55  -0.138002E+01  -0.389992E+00   0.389190E+01   0.000000E+00
 
 
 SOLVING FOR HEAD 
                                                   Max.-Head-Change                         Max.-Flux-Residual
  Residual-Control   Outer-Iter.   Inner-Iter.     Column Row Layer    Maximum-Head-Change  Column Row Layer    Maximum-Flux-Residual          L2-NORM 
          0                 1           2            52    1     1      -0.4717057985E-01      51    1    1        -0.1494779121E-02      0.3190442485E-01
          0                 2           2            52    1     1       0.4570956502E-02      51    1    1         0.1492403491E-03      0.3099124542E-02
          0                 3           2            52    1     1      -0.4023107827E-03      51    1    1        -0.1343489000E-04      0.2891381329E-03
          0                 4           1            52    1     1       0.3167039362E-04      69    4    1        -0.1291050912E-05      0.2479043997E-04
          0                 5           1            52    1     1      -0.2172390179E-05       7    4    1         0.1241318053E-06      0.1865494042E-05
          0                 6           1            52    1     1       0.1288275838E-06       7    4    1        -0.9375089149E-08      0.1204348715E-06

    ------------------------------------------------
       NWT REQUIRED            6 OUTER ITERATIONS 
       AND A TOTAL OF          9 INNER ITERATIONS.
    ------------------------------------------------

 NO OUTPUT CONTROL FOR STRESS PERIOD   26   TIME STEP   21
 
 WELLS WITH REDUCED PUMPING FOR STRESS PERIOD    26 TIME STEP    21
   LAY   ROW   COL         APPL.Q          ACT.Q        GW-HEAD       CELL-BOT
     1     3    50  -0.138000E+01  -0.478069E+00   0.443658E+01   0.000000E+00
     1     5    55  -0.138000E+01  -0.388313E+00   0.388204E+01   0.000000E+00
 
 
 SOLVING FOR HEAD 
                                                   Max.-Head-Change                         Max.-Flux-Residual
  Residual-Control   Outer-Iter.   Inner-Iter.     Column Row Layer    Maximum-Head-Change  Column Row Layer    Maximum-Flux-Residual          L2-NORM 
          0                 1           2            74    7     1      -0.5174081087E-01      73    3    1        -0.1465226543E-02      0.3178174746E-01
          0                 2           2            52    1     1       0.4899736580E-02      73    3    1         0.1465069684E-03      0.3086741095E-02
          0                 3           2            52    1     1      -0.4303926797E-03      73    5    1        -0.1318689427E-04      0.2880832979E-03
          0                 4           1            52    1     1       0.3382084591E-04      68    4    1        -0.1287593857E-05      0.2474706683E-04
          0                 5           1            52    1     1      -0.2308295252E-05       7    4    1         0.1259680857E-06      0.1863302698E-05
          0                 6           1            52    1     1       0.1363052516E-06       7    4    1        -0.9523667188E-08      0.1204591808E-06

    ------------------------------------------------
       NWT REQUIRED            6 OUTER ITERATIONS 
       AND A TOTAL OF          9 INNER ITERATIONS.
    ------------------------------------------------

 NO OUTPUT CONTROL FOR STRESS PERIOD   26   TIME STEP   22
 
 WELLS WITH REDUCED PUMPING FOR STRESS PERIOD    26 TIME STEP    22
   LAY   ROW   COL         APPL.Q          ACT.Q        GW-HEAD       CELL-BOT
     1     3    50  -0.137999E+01  -0.476120E+00   0.442558E+01   0.000000E+00
     1     5    55  -0.137999E+01  -0.386566E+00   0.387175E+01   0.000000E+00
 
 
 SOLVING FOR HEAD 
                                                   Max.-Head-Change                         Max.-Flux-Residual
  Residual-Control   Outer-Iter.   Inner-Iter.     Column Row Layer    Maximum-Head-Change  Column Row Layer    Maximum-Flux-Residual          L2-NORM 
          0                 1           3            73    7     1      -0.5682600902E-01      74    3    1        -0.1463002513E-02      0.3165783634E-01
          0                 2           2            73    7     1       0.5249026249E-02      74    5    1         0.1462845127E-03      0.3074169529E-02
          0                 3           2            52    1     1      -0.4582603988E-03      74    3    1        -0.1316720941E-04      0.2868363515E-03
          0                 4           1            52    1     1       0.3593674409E-04      68    4    1        -0.1306519230E-05      0.2466668917E-04
          0                 5           1            52    1     1      -0.2436812719E-05      11    4    1         0.1277519317E-06      0.1855572684E-05
          0                 6           1            53    1     1       0.1435362918E-06      11    4    1        -0.9648594812E-08      0.1199948858E-06

    ------------------------------------------------
       NWT REQUIRED            6 OUTER ITERATIONS 
       AND A TOTAL OF         10 INNER ITERATIONS.
    ------------------------------------------------

 NO OUTPUT CONTROL FOR STRESS PERIOD   26   TIME STEP   23
 
 WELLS WITH REDUCED PUMPING FOR STRESS PERIOD    26 TIME STEP    23
   LAY   ROW   COL         APPL.Q          ACT.Q        GW-HEAD       CELL-BOT
     1     3    50  -0.137998E+01  -0.474102E+00   0.441416E+01   0.000000E+00
     1     5    55  -0.137998E+01  -0.384741E+00   0.386099E+01   0.000000E+00
 
 
 SOLVING FOR HEAD 
                                                   Max.-Head-Change                         Max.-Flux-Residual
  Residual-Control   Outer-Iter.   Inner-Iter.     Column Row Layer    Maximum-Head-Change  Column Row Layer    Maximum-Flux-Residual          L2-NORM 
          0                 1           3            73    7     1      -0.6239606865E-01      74    3    1        -0.1461176513E-02      0.3153833535E-01
          0                 2           2            73    7     1       0.5752666253E-02      74    5    1         0.1460987268E-03      0.3061363596E-02
          0                 3           2            52    1     1      -0.4856711321E-03      74    3    1        -0.1315076302E-04      0.2853210033E-03
          0                 4           1            52    1     1       0.3799671364E-04      68    4    1        -0.1304417389E-05      0.2453764879E-04
          0                 5           1            53    1     1      -0.2568698569E-05      13    4    1         0.1295589342E-06      0.1840724376E-05
          0                 6           1            53    1     1       0.1516259441E-06       2    4    1        -0.9769959064E-08      0.1189049496E-06

    ------------------------------------------------
       NWT REQUIRED            6 OUTER ITERATIONS 
       AND A TOTAL OF         10 INNER ITERATIONS.
    ------------------------------------------------

 NO OUTPUT CONTROL FOR STRESS PERIOD   26   TIME STEP   24
 
 WELLS WITH REDUCED PUMPING FOR STRESS PERIOD    26 TIME STEP    24
   LAY   ROW   COL         APPL.Q          ACT.Q        GW-HEAD       CELL-BOT
     1     3    50  -0.137999E+01  -0.472003E+00   0.440225E+01   0.000000E+00
     1     5    55  -0.137999E+01  -0.382833E+00   0.384969E+01   0.000000E+00
 
 
 SOLVING FOR HEAD 
                                                   Max.-Head-Change                         Max.-Flux-Residual
  Residual-Control   Outer-Iter.   Inner-Iter.     Column Row Layer    Maximum-Head-Change  Column Row Layer    Maximum-Flux-Residual          L2-NORM 
          0                 1           3            73    7     1      -0.6849179048E-01      73    5    1        -0.1458458128E-02      0.3141587473E-01
          0                 2           2            73    7     1       0.6303486179E-02      73    5    1         0.1458258834E-03      0.3049075292E-02
          0                 3           2            73    7     1      -0.5226474076E-03      73    5    1        -0.1312599879E-04      0.2838817220E-03
          0                 4           1            52    1     1       0.3998240405E-04       1    4    1        -0.1310170564E-05      0.2440940773E-04
          0                 5           1            53    1     1      -0.2706743483E-05       1    4    1         0.1307687079E-06      0.1823834578E-05
          0                 6           1            53    1     1       0.1588984881E-06      14    4    1        -0.9831222059E-08      0.1175793856E-06

    ------------------------------------------------
       NWT REQUIRED            6 OUTER ITERATIONS 
       AND A TOTAL OF         10 INNER ITERATIONS.
    ------------------------------------------------

 NO OUTPUT CONTROL FOR STRESS PERIOD   26   TIME STEP   25
 
 WELLS WITH REDUCED PUMPING FOR STRESS PERIOD    26 TIME STEP    25
   LAY   ROW   COL         APPL.Q          ACT.Q        GW-HEAD       CELL-BOT
     1     3    50  -0.138001E+01  -0.469825E+00   0.438985E+01   0.000000E+00
     1     5    55  -0.138001E+01  -0.380830E+00   0.383779E+01   0.000000E+00
 
 
 SOLVING FOR HEAD 
                                                   Max.-Head-Change                         Max.-Flux-Residual
  Residual-Control   Outer-Iter.   Inner-Iter.     Column Row Layer    Maximum-Head-Change  Column Row Layer    Maximum-Flux-Residual          L2-NORM 
          0                 1           3            73    7     1      -0.7513372606E-01      74    3    1        -0.1455617260E-02      0.3128528515E-01
          0                 2           2            73    7     1       0.6901670819E-02      74    5    1         0.1455364360E-03      0.3036105139E-02
          0                 3           2            73    7     1      -0.5707850929E-03      74    3    1        -0.1310103060E-04      0.2824173037E-03
          0                 4           1            53    1     1       0.4213614223E-04      16    4    1        -0.1301386042E-05      0.2428079486E-04
          0                 5           1            53    1     1      -0.2830265296E-05      17    4    1         0.1310521434E-06      0.1804310874E-05
          0                 6           1            53    1     1       0.1649750316E-06      16    4    1        -0.9806804258E-08      0.1159672279E-06

    ------------------------------------------------
       NWT REQUIRED            6 OUTER ITERATIONS 
       AND A TOTAL OF         10 INNER ITERATIONS.
    ------------------------------------------------

 NO OUTPUT CONTROL FOR STRESS PERIOD   26   TIME STEP   26
 
 WELLS WITH REDUCED PUMPING FOR STRESS PERIOD    26 TIME STEP    26
   LAY   ROW   COL         APPL.Q          ACT.Q        GW-HEAD       CELL-BOT
     1     3    50  -0.138001E+01  -0.467558E+00   0.437699E+01   0.000000E+00
     1     5    55  -0.138001E+01  -0.378724E+00   0.382531E+01   0.000000E+00
 
 
 SOLVING FOR HEAD 
                                                   Max.-Head-Change                         Max.-Flux-Residual
  Residual-Control   Outer-Iter.   Inner-Iter.     Column Row Layer    Maximum-Head-Change  Column Row Layer    Maximum-Flux-Residual          L2-NORM 
          0                 1           3            73    7     1      -0.8230308651E-01      73    5    1        -0.1451809983E-02      0.3114239823E-01
          0                 2           2            73    7     1       0.7546247768E-02      73    5    1         0.1451527651E-03      0.3022338973E-02
          0                 3           2            73    7     1      -0.6225347831E-03      73    5    1        -0.1306577640E-04      0.2809409089E-03
          0                 4           1            72    7     1       0.4567912679E-04      17    4    1        -0.1312266669E-05      0.2415444873E-04
          0                 5           1            53    1     1      -0.2936334881E-05      17    4    1         0.1340945488E-06      0.1782366485E-05
          0                 6           1            53    1     1       0.1696513508E-06      17    4    1        -0.9975408943E-08      0.1141170305E-06

    ------------------------------------------------
       NWT REQUIRED            6 OUTER ITERATIONS 
       AND A TOTAL OF         10 INNER ITERATIONS.
    ------------------------------------------------

 NO OUTPUT CONTROL FOR STRESS PERIOD   26   TIME STEP   27
 
 WELLS WITH REDUCED PUMPING FOR STRESS PERIOD    26 TIME STEP    27
   LAY   ROW   COL         APPL.Q          ACT.Q        GW-HEAD       CELL-BOT
     1     3    50  -0.138000E+01  -0.465201E+00   0.436360E+01   0.000000E+00
     1     5    55  -0.138000E+01  -0.376517E+00   0.381221E+01   0.000000E+00
 
 
 SOLVING FOR HEAD 
                                                   Max.-Head-Change                         Max.-Flux-Residual
  Residual-Control   Outer-Iter.   Inner-Iter.     Column Row Layer    Maximum-Head-Change  Column Row Layer    Maximum-Flux-Residual          L2-NORM 
          0                 1           3            73    7     1      -0.9007706224E-01      73    5    1        -0.1444623727E-02      0.3099027901E-01
          0                 2           2            73    7     1       0.8243603651E-02      73    5    1         0.1444317236E-03      0.3007298484E-02
          0                 3           2             8    7     1      -0.6827823115E-03      73    3    1        -0.1300106613E-04      0.2793538641E-03
          0                 4           1             4    1     1       0.4983755824E-04      18    4    1        -0.1317949657E-05      0.2402648016E-04
          0                 5           1            71    1     1      -0.3119635414E-05      18    4    1         0.1329689852E-06      0.1758513203E-05
          0                 6           1            53    1     1       0.1728284384E-06      18    4    1        -0.9901100384E-08      0.1121557540E-06

    ------------------------------------------------
       NWT REQUIRED            6 OUTER ITERATIONS 
       AND A TOTAL OF         10 INNER ITERATIONS.
    ------------------------------------------------

 NO OUTPUT CONTROL FOR STRESS PERIOD   26   TIME STEP   28
 
 WELLS WITH REDUCED PUMPING FOR STRESS PERIOD    26 TIME STEP    28
   LAY   ROW   COL         APPL.Q          ACT.Q        GW-HEAD       CELL-BOT
     1     3    50  -0.138000E+01  -0.462749E+00   0.434965E+01   0.000000E+00
     1     5    55  -0.138000E+01  -0.374203E+00   0.379844E+01   0.000000E+00
 
 
 SOLVING FOR HEAD 
                                                   Max.-Head-Change                         Max.-Flux-Residual
  Residual-Control   Outer-Iter.   Inner-Iter.     Column Row Layer    Maximum-Head-Change  Column Row Layer    Maximum-Flux-Residual          L2-NORM 
          0                 1           3            73    7     1      -0.9852551766E-01      73    5    1        -0.1437158385E-02      0.3083042940E-01
          0                 2           2             9    7     1       0.9028842760E-02      73    6    1         0.1436854184E-03      0.2991348649E-02
          0                 3           2             9    7     1      -0.7487686386E-03      73    3    1        -0.1293380983E-04      0.2776327239E-03
          0                 4           1             4    1     1       0.5450403858E-04      19    4    1        -0.1320737788E-05      0.2387915829E-04
          0                 5           1            71    7     1      -0.3351553747E-05      19    4    1         0.1345798317E-06      0.1729445595E-05
          0                 6           1            69    7     1       0.1804604381E-06      74    4    1        -0.9847404669E-08      0.1098096948E-06

    ------------------------------------------------
       NWT REQUIRED            6 OUTER ITERATIONS 
       AND A TOTAL OF         10 INNER ITERATIONS.
    ------------------------------------------------

 NO OUTPUT CONTROL FOR STRESS PERIOD   26   TIME STEP   29
 
 WELLS WITH REDUCED PUMPING FOR STRESS PERIOD    26 TIME STEP    29
   LAY   ROW   COL         APPL.Q          ACT.Q        GW-HEAD       CELL-BOT
     1     3    50  -0.137999E+01  -0.460194E+00   0.433511E+01   0.000000E+00
     1     5    55  -0.137999E+01  -0.371778E+00   0.378400E+01   0.000000E+00
 
 
 SOLVING FOR HEAD 
                                                   Max.-Head-Change                         Max.-Flux-Residual
  Residual-Control   Outer-Iter.   Inner-Iter.     Column Row Layer    Maximum-Head-Change  Column Row Layer    Maximum-Flux-Residual          L2-NORM 
          0                 1           3            72    7     1      -0.1077090407E+00      73    1    1        -0.1429210364E-02      0.3066482831E-01
          0                 2           3             9    1     1       0.9912906059E-02      73    1    1         0.1428914229E-03      0.2974665160E-02
          0                 3           2            10    1     1      -0.8214956144E-03      73    7    1        -0.1286237626E-04      0.2759368046E-03
          0                 4           1             3    1     1       0.5956391981E-04      20    4    1        -0.1324487741E-05      0.2373073965E-04
          0                 5           1            69    7     1      -0.3596584421E-05      21    4    1         0.1340583644E-06      0.1697129267E-05
          0                 6           1            69    7     1       0.1919825165E-06      72    4    1        -0.9880764651E-08      0.1073158779E-06

    ------------------------------------------------
       NWT REQUIRED            6 OUTER ITERATIONS 
       AND A TOTAL OF         11 INNER ITERATIONS.
    ------------------------------------------------

 NO OUTPUT CONTROL FOR STRESS PERIOD   26   TIME STEP   30
 
 WELLS WITH REDUCED PUMPING FOR STRESS PERIOD    26 TIME STEP    30
   LAY   ROW   COL         APPL.Q          ACT.Q        GW-HEAD       CELL-BOT
     1     3    50  -0.137999E+01  -0.457525E+00   0.431988E+01   0.000000E+00
     1     5    55  -0.137999E+01  -0.369231E+00   0.376879E+01   0.000000E+00
 



 STREAM LISTING     PERIOD     26   STEP       30

 LAYER ROW COL. STREAM  RCH.   FLOW INTO    STREAM     FLOW OUT OF   OVRLND.    DIRECT     STREAM      STREAM      STREAM     STREAM  STREAMBED   FLOW TO   CHNG. UNSAT. 
                SEG.NO.  NO.   STRM. RCH.    LOSS       STRM. RCH.   RUNOFF     PRECIP       ET         HEAD        DEPTH      WIDTH  CONDCTNC.   WAT. TAB.

   1    4    1     1     1    5.1200E-01  4.2647E-04   5.1157E-01  0.000E+00  0.000E+00  0.000E+00  1.40390E+02  5.403E-01  2.459E+00  4.099E-04  3.677E-04  5.879E-05
   1    4    2     1     2    5.1157E-01  4.2632E-04   5.1115E-01  0.000E+00  0.000E+00  0.000E+00  1.40090E+02  5.401E-01  2.459E+00  4.099E-04  3.674E-04  5.889E-05
   1    4    3     1     3    5.1115E-01  4.2617E-04   5.1072E-01  0.000E+00  0.000E+00  0.000E+00  1.39790E+02  5.399E-01  2.458E+00  4.098E-04  3.672E-04  5.898E-05
   1    4    4     1     4    5.1072E-01  4.2602E-04   5.1030E-01  0.000E+00  0.000E+00  0.000E+00  1.39490E+02  5.397E-01  2.458E+00  4.097E-04  3.669E-04  5.908E-05
   1    4    5     1     5    5.1030E-01  4.2586E-04   5.0987E-01  0.000E+00  0.000E+00  0.000E+00  1.39190E+02  5.395E-01  2.458E+00  4.097E-04  3.667E-04  5.917E-05
   1    4    6     1     6    5.0987E-01  4.2571E-04   5.0944E-01  0.000E+00  0.000E+00  0.000E+00  1.38889E+02  5.393E-01  2.458E+00  4.096E-04  3.664E-04  5.927E-05
   1    4    7     1     7    5.0944E-01  4.2556E-04   5.0902E-01  0.000E+00  0.000E+00  0.000E+00  1.38589E+02  5.391E-01  2.458E+00  4.095E-04  3.662E-04  5.937E-05
   1    4    8     1     8    5.0902E-01  4.2541E-04   5.0859E-01  0.000E+00  0.000E+00  0.000E+00  1.38289E+02  5.389E-01  2.457E+00  4.095E-04  3.659E-04  5.947E-05
   1    4    9     1     9    5.0859E-01  4.2526E-04   5.0817E-01  0.000E+00  0.000E+00  0.000E+00  1.37989E+02  5.387E-01  2.457E+00  4.094E-04  3.657E-04  5.957E-05
   1    4   10     1    10    5.0817E-01  4.2511E-04   5.0774E-01  0.000E+00  0.000E+00  0.000E+00  1.37689E+02  5.385E-01  2.457E+00  4.093E-04  3.654E-04  5.967E-05
   1    4   11     1    11    5.0774E-01  4.2495E-04   5.0732E-01  0.000E+00  0.000E+00  0.000E+00  1.37388E+02  5.383E-01  2.457E+00  4.093E-04  3.652E-04  5.977E-05
   1    4   12     1    12    5.0732E-01  4.2480E-04   5.0689E-01  0.000E+00  0.000E+00  0.000E+00  1.37088E+02  5.381E-01  2.456E+00  4.092E-04  3.649E-04  5.987E-05
   1    4   13     1    13    5.0689E-01  4.2465E-04   5.0647E-01  0.000E+00  0.000E+00  0.000E+00  1.36788E+02  5.379E-01  2.456E+00  4.091E-04  3.647E-04  5.996E-05
   1    4   14     1    14    5.0647E-01  4.2450E-04   5.0604E-01  0.000E+00  0.000E+00  0.000E+00  1.36488E+02  5.377E-01  2.456E+00  4.091E-04  3.645E-04  6.004E-05
   1    4   15     1    15    5.0604E-01  4.2435E-04   5.0562E-01  0.000E+00  0.000E+00  0.000E+00  1.36188E+02  5.375E-01  2.456E+00  4.090E-04  3.642E-04  6.012E-05
   1    4   16     1    16    5.0562E-01  4.2420E-04   5.0519E-01  0.000E+00  0.000E+00  0.000E+00  1.35887E+02  5.373E-01  2.455E+00  4.089E-04  3.640E-04  6.019E-05
   1    4   17     1    17    5.0519E-01  4.2405E-04   5.0477E-01  0.000E+00  0.000E+00  0.000E+00  1.35587E+02  5.371E-01  2.455E+00  4.089E-04  3.638E-04  6.026E-05
   1    4   18     1    18    5.0477E-01  4.2389E-04   5.0435E-01  0.000E+00  0.000E+00  0.000E+00  1.35287E+02  5.369E-01  2.455E+00  4.088E-04  3.635E-04  6.035E-05
   1    4   19     1    19    5.0435E-01  4.2374E-04   5.0392E-01  0.000E+00  0.000E+00  0.000E+00  1.34987E+02  5.367E-01  2.455E+00  4.087E-04  3.837E-04  4.007E-05
   1    4   20     1    20    5.0392E-01  4.2359E-04   5.0350E-01  0.000E+00  0.000E+00  0.000E+00  1.34686E+02  5.365E-01  2.454E+00  4.087E-04  4.208E-04  2.841E-06
   1    4   21     1    21    5.0350E-01  4.2344E-04   5.0308E-01  0.000E+00  0.000E+00  0.000E+00  1.34386E+02  5.363E-01  2.454E+00  4.086E-04  4.207E-04  2.696E-06
   1    4   22     1    22    5.0308E-01  4.2329E-04   5.0265E-01  0.000E+00  0.000E+00  0.000E+00  1.34086E+02  5.361E-01  2.454E+00  4.085E-04  4.207E-04  2.558E-06
   1    4   23     1    23    5.0265E-01  4.2314E-04   5.0223E-01  0.000E+00  0.000E+00  0.000E+00  1.33786E+02  5.359E-01  2.454E+00  4.085E-04  4.207E-04  2.410E-06
   1    4   24     1    24    5.0223E-01  4.2299E-04   5.0181E-01  0.000E+00  0.000E+00  0.000E+00  1.33486E+02  5.357E-01  2.453E+00  4.084E-04  4.208E-04  2.237E-06
   1    4   25     1    25    5.0181E-01  4.2284E-04   5.0138E-01  0.000E+00  0.000E+00  0.000E+00  1.33185E+02  5.355E-01  2.453E+00  4.084E-04  4.208E-04  2.028E-06
   1    4   26     1    26    5.0138E-01  4.2269E-04   5.0096E-01  0.000E+00  0.000E+00  0.000E+00  1.32885E+02  5.353E-01  2.453E+00  4.083E-04  4.209E-04  1.777E-06
   1    4   27     1    27    5.0096E-01  4.2253E-04   5.0054E-01  0.000E+00  0.000E+00  0.000E+00  1.32585E+02  5.351E-01  2.453E+00  4.082E-04  4.211E-04  1.479E-06
   1    4   28     1    28    5.0054E-01  4.2238E-04   5.0012E-01  0.000E+00  0.000E+00  0.000E+00  1.32285E+02  5.349E-01  2.452E+00  4.082E-04  4.213E-04  1.130E-06
   1    4   29     1    29    5.0012E-01  4.2223E-04   4.9969E-01  0.000E+00  0.000E+00  0.000E+00  1.31985E+02  5.347E-01  2.452E+00  4.081E-04  4.215E-04  7.229E-07
   1    4   30     1    30    4.9969E-01  4.2208E-04   4.9927E-01  0.000E+00  0.000E+00  0.000E+00  1.31684E+02  5.345E-01  2.452E+00  4.080E-04  4.218E-04  2.582E-07
   1    4   31     1    31    4.9927E-01  4.2193E-04   4.9885E-01  0.000E+00  0.000E+00  0.000E+00  1.31384E+02  5.343E-01  2.452E+00  4.080E-04  4.222E-04 -2.702E-07
   1    4   32     1    32    4.9885E-01  4.2178E-04   4.9843E-01  0.000E+00  0.000E+00  0.000E+00  1.31084E+02  5.341E-01  2.451E+00  4.079E-04  4.226E-04 -8.593E-07
   1    4   33     1    33    4.9843E-01  4.2163E-04   4.9801E-01  0.000E+00  0.000E+00  0.000E+00  1.30784E+02  5.339E-01  2.451E+00  4.078E-04  4.231E-04 -1.509E-06
   1    4   34     1    34    4.9801E-01  4.2148E-04   4.9758E-01  0.000E+00  0.000E+00  0.000E+00  1.30484E+02  5.337E-01  2.451E+00  4.078E-04  4.237E-04 -2.220E-06
   1    4   35     1    35    4.9758E-01  4.2133E-04   4.9716E-01  0.000E+00  0.000E+00  0.000E+00  1.30183E+02  5.335E-01  2.451E+00  4.077E-04  4.243E-04 -2.985E-06
   1    4   36     1    36    4.9716E-01  4.2118E-04   4.9674E-01  0.000E+00  0.000E+00  0.000E+00  1.29883E+02  5.332E-01  2.450E+00  4.076E-04  4.250E-04 -3.797E-06
   1    4   37     1    37    4.9674E-01  4.2103E-04   4.9632E-01  0.000E+00  0.000E+00  0.000E+00  1.29583E+02  5.330E-01  2.450E+00  4.076E-04  4.257E-04 -4.648E-06
   1    4   38     1    38    4.9632E-01  4.2088E-04   4.9590E-01  0.000E+00  0.000E+00  0.000E+00  1.29283E+02  5.328E-01  2.450E+00  4.075E-04  4.263E-04 -5.457E-06
   1    4   39     1    39    4.9590E-01  4.2073E-04   4.9548E-01  0.000E+00  0.000E+00  0.000E+00  1.28983E+02  5.326E-01  2.450E+00  4.074E-04  4.411E-04 -2.042E-05
   1    4   40     1    40    4.9548E-01  4.2058E-04   4.9506E-01  0.000E+00  0.000E+00  0.000E+00  1.28682E+02  5.324E-01  2.450E+00  4.074E-04  4.704E-04 -4.979E-05
   1    4   41     1    41    4.9506E-01  4.2042E-04   4.9464E-01  0.000E+00  0.000E+00  0.000E+00  1.28382E+02  5.322E-01  2.449E+00  4.073E-04  5.301E-04 -1.096E-04
   1    4   42     1    42    4.9464E-01  4.2027E-04   4.9422E-01  0.000E+00  0.000E+00  0.000E+00  1.28082E+02  5.320E-01  2.449E+00  4.072E-04  5.619E-04 -1.417E-04
   1    4   43     1    43    4.9422E-01  4.2012E-04   4.9380E-01  0.000E+00  0.000E+00  0.000E+00  1.27782E+02  5.318E-01  2.449E+00  4.072E-04  5.786E-04 -1.584E-04
   1    4   44     1    44    4.9380E-01  4.1997E-04   4.9338E-01  0.000E+00  0.000E+00  0.000E+00  1.27482E+02  5.316E-01  2.449E+00  4.071E-04  6.634E-04 -2.434E-04
   1    4   45     1    45    4.9338E-01  4.1982E-04   4.9296E-01  0.000E+00  0.000E+00  0.000E+00  1.27181E+02  5.314E-01  2.448E+00  4.070E-04  6.933E-04 -2.734E-04
   1    4   46     1    46    4.9296E-01  4.1967E-04   4.9254E-01  0.000E+00  0.000E+00  0.000E+00  1.26881E+02  5.312E-01  2.448E+00  4.070E-04  7.267E-04 -3.070E-04
   1    4   47     1    47    4.9254E-01  4.1952E-04   4.9212E-01  0.000E+00  0.000E+00  0.000E+00  1.26581E+02  5.310E-01  2.448E+00  4.069E-04  7.694E-04 -3.499E-04
   1    4   48     1    48    4.9212E-01  4.1937E-04   4.9170E-01  0.000E+00  0.000E+00  0.000E+00  1.26281E+02  5.308E-01  2.448E+00  4.068E-04  8.182E-04 -3.989E-04
   1    4   49     1    49    4.9170E-01  4.1922E-04   4.9128E-01  0.000E+00  0.000E+00  0.000E+00  1.25981E+02  5.306E-01  2.447E+00  4.068E-04  8.386E-04 -4.194E-04
   1    4   50     1    50    4.9128E-01  4.1907E-04   4.9086E-01  0.000E+00  0.000E+00  0.000E+00  1.25680E+02  5.304E-01  2.447E+00  4.067E-04  9.306E-04 -5.116E-04
   1    4   51     1    51    4.9086E-01  4.1892E-04   4.9044E-01  0.000E+00  0.000E+00  0.000E+00  1.25380E+02  5.302E-01  2.447E+00  4.066E-04  8.409E-04 -4.220E-04
   1    4   52     1    52    4.9044E-01  4.1877E-04   4.9002E-01  0.000E+00  0.000E+00  0.000E+00  1.25080E+02  5.300E-01  2.447E+00  4.066E-04  8.160E-04 -3.973E-04
   1    4   53     1    53    4.9002E-01  4.1862E-04   4.8961E-01  0.000E+00  0.000E+00  0.000E+00  1.24780E+02  5.298E-01  2.446E+00  4.065E-04  8.151E-04 -3.965E-04
   1    4   54     1    54    4.8961E-01  4.1847E-04   4.8919E-01  0.000E+00  0.000E+00  0.000E+00  1.24480E+02  5.296E-01  2.446E+00  4.064E-04  8.598E-04 -4.414E-04
   1    4   55     1    55    4.8919E-01  4.1832E-04   4.8877E-01  0.000E+00  0.000E+00  0.000E+00  1.24179E+02  5.294E-01  2.446E+00  4.064E-04  9.256E-04 -5.073E-04
   1    4   56     1    56    4.8877E-01  4.1817E-04   4.8835E-01  0.000E+00  0.000E+00  0.000E+00  1.23879E+02  5.292E-01  2.446E+00  4.063E-04  8.320E-04 -4.139E-04
   1    4   57     1    57    4.8835E-01  4.1802E-04   4.8793E-01  0.000E+00  0.000E+00  0.000E+00  1.23579E+02  5.290E-01  2.445E+00  4.062E-04  8.160E-04 -3.980E-04
   1    4   58     1    58    4.8793E-01  4.1787E-04   4.8751E-01  0.000E+00  0.000E+00  0.000E+00  1.23279E+02  5.288E-01  2.445E+00  4.062E-04  7.693E-04 -3.514E-04
   1    4   59     1    59    4.8751E-01  4.1772E-04   4.8710E-01  0.000E+00  0.000E+00  0.000E+00  1.22979E+02  5.286E-01  2.445E+00  4.061E-04  7.289E-04 -3.111E-04
   1    4   60     1    60    4.8710E-01  4.1757E-04   4.8668E-01  0.000E+00  0.000E+00  0.000E+00  1.22678E+02  5.284E-01  2.445E+00  4.060E-04  6.908E-04 -2.733E-04
   1    4   61     1    61    4.8668E-01  4.1742E-04   4.8626E-01  0.000E+00  0.000E+00  0.000E+00  1.22378E+02  5.282E-01  2.444E+00  4.060E-04  6.570E-04 -2.396E-04
   1    4   62     1    62    4.8626E-01  4.1727E-04   4.8584E-01  0.000E+00  0.000E+00  0.000E+00  1.22078E+02  5.280E-01  2.444E+00  4.059E-04  5.763E-04 -1.590E-04
   1    4   63     1    63    4.8584E-01  4.1712E-04   4.8543E-01  0.000E+00  0.000E+00  0.000E+00  1.21778E+02  5.278E-01  2.444E+00  4.058E-04  5.498E-04 -1.327E-04
   1    4   64     1    64    4.8543E-01  4.1697E-04   4.8501E-01  0.000E+00  0.000E+00  0.000E+00  1.21478E+02  5.276E-01  2.444E+00  4.058E-04  5.263E-04 -1.094E-04
   1    4   65     1    65    4.8501E-01  4.1682E-04   4.8459E-01  0.000E+00  0.000E+00  0.000E+00  1.21177E+02  5.274E-01  2.443E+00  4.057E-04  5.046E-04 -8.776E-05
   1    4   66     1    66    4.8459E-01  4.1667E-04   4.8418E-01  0.000E+00  0.000E+00  0.000E+00  1.20877E+02  5.272E-01  2.443E+00  4.056E-04  4.740E-04 -5.736E-05
   1    4   67     1    67    4.8418E-01  4.1652E-04   4.8376E-01  0.000E+00  0.000E+00  0.000E+00  1.20577E+02  5.270E-01  2.443E+00  4.056E-04  4.103E-04  6.184E-06
   1    4   68     1    68    4.8376E-01  4.1637E-04   4.8334E-01  0.000E+00  0.000E+00  0.000E+00  1.20277E+02  5.268E-01  2.443E+00  4.055E-04  4.093E-04  7.115E-06
   1    4   69     1    69    4.8334E-01  4.1622E-04   4.8293E-01  0.000E+00  0.000E+00  0.000E+00  1.19977E+02  5.266E-01  2.443E+00  4.054E-04  4.083E-04  7.914E-06
   1    4   70     1    70    4.8293E-01  4.1607E-04   4.8251E-01  0.000E+00  0.000E+00  0.000E+00  1.19676E+02  5.264E-01  2.442E+00  4.054E-04  4.075E-04  8.578E-06
   1    4   71     1    71    4.8251E-01  4.1592E-04   4.8210E-01  0.000E+00  0.000E+00  0.000E+00  1.19376E+02  5.262E-01  2.442E+00  4.053E-04  4.069E-04  9.067E-06
   1    4   72     1    72    4.8210E-01  4.1577E-04   4.8168E-01  0.000E+00  0.000E+00  0.000E+00  1.19076E+02  5.260E-01  2.442E+00  4.052E-04  4.064E-04  9.369E-06
   1    4   73     1    73    4.8168E-01  4.1562E-04   4.8126E-01  0.000E+00  0.000E+00  0.000E+00  1.18776E+02  5.258E-01  2.442E+00  4.052E-04  4.062E-04  9.471E-06
   1    4   74     1    74    4.8126E-01  4.1547E-04   4.8085E-01  0.000E+00  0.000E+00  0.000E+00  1.18476E+02  5.256E-01  2.441E+00  4.051E-04  4.061E-04  9.370E-06
   1    4   75     1    75    4.8085E-01  4.1532E-04   4.8043E-01  0.000E+00  0.000E+00  0.000E+00  1.18175E+02  5.254E-01  2.441E+00  4.051E-04  4.063E-04  9.065E-06
   1    4   76     1    76    4.8043E-01  4.1517E-04   4.8002E-01  0.000E+00  0.000E+00  0.000E+00  1.17875E+02  5.252E-01  2.441E+00  4.050E-04  4.066E-04  8.547E-06
   1    4   77     1    77    4.8002E-01  4.1503E-04   4.7960E-01  0.000E+00  0.000E+00  0.000E+00  1.17575E+02  5.250E-01  2.441E+00  4.049E-04  4.072E-04  7.818E-06
   1    4   78     1    78    4.7960E-01  4.1488E-04   4.7919E-01  0.000E+00  0.000E+00  0.000E+00  1.17275E+02  5.248E-01  2.440E+00  4.049E-04  4.080E-04  6.874E-06
   1    4   79     1    79    4.7919E-01  4.1473E-04   4.7877E-01  0.000E+00  0.000E+00  0.000E+00  1.16975E+02  5.246E-01  2.440E+00  4.048E-04  4.090E-04  5.717E-06
   1    4   80     1    80    4.7877E-01  4.1458E-04   4.7836E-01  0.000E+00  0.000E+00  0.000E+00  1.16674E+02  5.244E-01  2.440E+00  4.047E-04  4.102E-04  4.345E-06
   1    4   81     1    81    4.7836E-01  4.1443E-04   4.7795E-01  0.000E+00  0.000E+00  0.000E+00  1.16374E+02  5.241E-01  2.440E+00  4.047E-04  4.117E-04  2.759E-06
   1    4   82     1    82    4.7795E-01  4.1428E-04   4.7753E-01  0.000E+00  0.000E+00  0.000E+00  1.16074E+02  5.239E-01  2.439E+00  4.046E-04  4.133E-04  9.682E-07
   1    4   83     1    83    4.7753E-01  4.1413E-04   4.7712E-01  0.000E+00  0.000E+00  0.000E+00  1.15774E+02  5.237E-01  2.439E+00  4.045E-04  4.071E-04  7.045E-06
   1    4   84     1    84    4.7712E-01  4.1398E-04   4.7670E-01  0.000E+00  0.000E+00  0.000E+00  1.15474E+02  5.235E-01  2.439E+00  4.045E-04  3.572E-04  5.683E-05
   1    4   85     1    85    4.7670E-01  4.1383E-04   4.7629E-01  0.000E+00  0.000E+00  0.000E+00  1.15173E+02  5.233E-01  2.439E+00  4.044E-04  3.590E-04  5.480E-05
   1    4   86     1    86    4.7629E-01  4.1368E-04   4.7588E-01  0.000E+00  0.000E+00  0.000E+00  1.14873E+02  5.231E-01  2.438E+00  4.043E-04  3.610E-04  5.265E-05
   1    4   87     1    87    4.7588E-01  4.1353E-04   4.7546E-01  0.000E+00  0.000E+00  0.000E+00  1.14573E+02  5.229E-01  2.438E+00  4.043E-04  3.634E-04  5.010E-05
   1    4   88     1    88    4.7546E-01  4.1338E-04   4.7505E-01  0.000E+00  0.000E+00  0.000E+00  1.14273E+02  5.227E-01  2.438E+00  4.042E-04  3.663E-04  4.712E-05
   1    4   89     1    89    4.7505E-01  4.1323E-04   4.7463E-01  0.000E+00  0.000E+00  0.000E+00  1.13973E+02  5.225E-01  2.438E+00  4.041E-04  3.693E-04  4.392E-05
   1    4   90     1    90    4.7463E-01  4.1308E-04   4.7422E-01  0.000E+00  0.000E+00  0.000E+00  1.13672E+02  5.223E-01  2.437E+00  4.041E-04  3.726E-04  4.048E-05
   1    4   91     1    91    4.7422E-01  4.1294E-04   4.7381E-01  0.000E+00  0.000E+00  0.000E+00  1.13372E+02  5.221E-01  2.437E+00  4.040E-04  3.761E-04  3.683E-05
   1    4   92     1    92    4.7381E-01  4.1279E-04   4.7340E-01  0.000E+00  0.000E+00  0.000E+00  1.13072E+02  5.219E-01  2.437E+00  4.039E-04  3.798E-04  3.296E-05
   1    4   93     1    93    4.7340E-01  4.1264E-04   4.7298E-01  0.000E+00  0.000E+00  0.000E+00  1.12772E+02  5.217E-01  2.437E+00  4.039E-04  3.838E-04  2.888E-05
   1    4   94     1    94    4.7298E-01  4.1249E-04   4.7257E-01  0.000E+00  0.000E+00  0.000E+00  1.12472E+02  5.215E-01  2.436E+00  4.038E-04  3.879E-04  2.460E-05
   1    4   95     1    95    4.7257E-01  4.1234E-04   4.7216E-01  0.000E+00  0.000E+00  0.000E+00  1.12171E+02  5.213E-01  2.436E+00  4.037E-04  3.922E-04  2.015E-05
   1    4   96     1    96    4.7216E-01  4.1219E-04   4.7175E-01  0.000E+00  0.000E+00  0.000E+00  1.11871E+02  5.211E-01  2.436E+00  4.037E-04  3.967E-04  1.553E-05
   1    4   97     1    97    4.7175E-01  4.1204E-04   4.7133E-01  0.000E+00  0.000E+00  0.000E+00  1.11571E+02  5.209E-01  2.436E+00  4.036E-04  4.013E-04  1.079E-05
   1    4   98     1    98    4.7133E-01  4.1189E-04   4.7092E-01  0.000E+00  0.000E+00  0.000E+00  1.11271E+02  5.207E-01  2.435E+00  4.035E-04  4.060E-04  5.941E-06
   1    4   99     1    99    4.7092E-01  4.1174E-04   4.7051E-01  0.000E+00  0.000E+00  0.000E+00  1.10971E+02  5.205E-01  2.435E+00  4.035E-04  4.107E-04  1.021E-06
   1    4  100     1   100    4.7051E-01  4.1160E-04   4.7010E-01  0.000E+00  0.000E+00  0.000E+00  1.10670E+02  5.203E-01  2.435E+00  4.034E-04  4.188E-04 -7.209E-06



1
  VOLUMETRIC BUDGET FOR UNSATURATED ZONE BENEATH STREAMS AT END OF TIME STEP    30 STRESS PERIOD  26
  ------------------------------------------------------------------------------------------------

    CUMULATIVE VOLUMES             L**3    RATES FOR THIS TIME STEP         L**3/T
    ------------------                     ------------------------


          STREAM LOSS =     27417554.0000            STREAM LOSS =        4.1901E-02
    CHANGE IN STORAGE =      1086497.8750      CHANGE IN STORAGE =       -5.9346E-03
       RECHARGE TO GW =     26337748.0000         RECHARGE TO GW =        4.7835E-02

             TOTAL IN =     27417554.0000               TOTAL IN =        4.7836E-02

            TOTAL OUT =     27424246.0000              TOTAL OUT =        4.7835E-02

             IN - OUT =        -6692.0000               IN - OUT =        4.4703E-07

  PERCENT DISCREPANCY =           -0.01      PERCENT DISCREPANCY =             0.00



1
  VOLUMETRIC BUDGET FOR ENTIRE MODEL AT END OF TIME STEP   30, STRESS PERIOD  26
  ------------------------------------------------------------------------------

     CUMULATIVE VOLUMES      L**3       RATES FOR THIS TIME STEP      L**3/T
     ------------------                 ------------------------

           IN:                                      IN:
           ---                                      ---
             STORAGE     =    92192688.0000               STORAGE     =           0.7746
       CONSTANT HEAD     =           0.0000         CONSTANT HEAD     =           0.0000
               WELLS     =           0.0000                 WELLS     =           0.0000
     HEAD DEP BOUNDS     =        2602.8914       HEAD DEP BOUNDS     =       4.3548E-03
      STREAM LEAKAGE     =    26337596.0000        STREAM LEAKAGE     =       4.7835E-02

                TOTAL IN =   118532880.0000                  TOTAL IN =           0.8268

          OUT:                                     OUT:
          ----                                     ----
             STORAGE     =     3107309.0000               STORAGE     =           0.0000
       CONSTANT HEAD     =           0.0000         CONSTANT HEAD     =           0.0000
               WELLS     =    99039736.0000                 WELLS     =           0.8268
     HEAD DEP BOUNDS     =    16385952.0000       HEAD DEP BOUNDS     =           0.0000
      STREAM LEAKAGE     =           0.0000        STREAM LEAKAGE     =           0.0000

               TOTAL OUT =   118533000.0000                 TOTAL OUT =           0.8268

                IN - OUT =        -120.0000                  IN - OUT =           0.0000

     PERCENT DISCREPANCY =          -0.00         PERCENT DISCREPANCY =           0.00






         TIME SUMMARY AT END OF TIME STEP   30 IN STRESS PERIOD   26
                    SECONDS     MINUTES      HOURS       DAYS        YEARS
                    -----------------------------------------------------------
   TIME STEP LENGTH 2.49961E+05  4166.0      69.434      2.8931     7.92080E-03
 STRESS PERIOD TIME 2.59200E+06  43200.      720.00      30.000     8.21355E-02
         TOTAL TIME 6.73919E+07 1.12320E+06  18720.      780.00      2.1355    
1
1
                            STRESS PERIOD NO.   27, LENGTH =   2592000.    
                            -----------------------------------------------

                              NUMBER OF TIME STEPS =    30

                               MULTIPLIER FOR DELT =     1.100

                            INITIAL TIME STEP SIZE =   15757.40    

 REUSING NON-PARAMETER WELLS FROM LAST STRESS PERIOD

      1 WELL 

 REUSING NON-PARAMETER GHB CELLS FROM LAST STRESS PERIOD

      7 GHB CELLS



 CLASSIFICATION & COUNT OF STREAM SEGMENTS BASED ON SOURCE OF INFLOW:

                HEADWATER     DIVERSION     RECEIVES TRIBUTARY FLOW
                ---------     ---------     -----------------------
                     1              0               0



                    INPUT DATA FOR EACH STREAM SEGMENT
 ---------------------------------------------------------------------------------------------

 SEGMENT    SEG.     INFLOW   OVERLAND   STREAM    STREAM   ICALC  OUTFLOW  DIVERSION PRIORITY
    NO.    LENGTH     RATE     RUNOFF      ET       PPT.    METH.  TO SEG.  FROM SEG.    NO.

      1  2.000E+04 7.500E-01 0.000E+00 0.000E+00 0.000E+00    2        0        0        0


         STREAMBED PROPERTIES AND STREAM DIMENSIONS

 SEGMENT     BED HYD. COND.      BED THICKNESS     ELEV.-TOP OF BED     WIDTH OF STREAM     DEPTH OF STREAM    STREAM ROUGHNESS
    No.     UPPER     LOWER     UPPER     LOWER     UPPER     LOWER     UPPER     LOWER     UPPER     LOWER   CHANNEL      BANK

     1  3.500E-07 3.500E-07                                                                                 3.000E-02 4.000E-02

  EIGHT POINT CROSS-SECTION DATA FOR SEGMENTS WITH ICALC = 2
    X VALUES X VALUES START FROM LEFT SIDE LOOKING DOWNSTREAM

     SEGMENT NO.        X1        X2        X3        X4        X5        X6        X7        X8
            1      0.000E+00 2.000E+00 4.000E+00 6.000E+00 8.000E+00 1.000E+01 1.200E+01 1.400E+01

    Z VALUES ARE RELATIVE TO STREAMBED ELEVATION

     SEGMENT NO.          Z1        Z2        Z3        Z4        Z5        Z6        Z7        Z8
            1      6.000E+00 4.500E+00 3.500E+00 0.000E+00 3.000E-01 3.500E+00 4.500E+00 6.000E+00



 
 SOLVING FOR HEAD 
                                                   Max.-Head-Change                         Max.-Flux-Residual
  Residual-Control   Outer-Iter.   Inner-Iter.     Column Row Layer    Maximum-Head-Change  Column Row Layer    Maximum-Flux-Residual          L2-NORM 
          0                 1           2            50    3     1      -0.7931267421E-01      50    3    1        -0.3333899912E-01      0.5259653157E-01
          0                 2           2            50    3     1       0.7678516867E-02      50    3    1         0.3279158951E-02      0.5149601175E-02
          0                 3           2            50    3     1      -0.6846823738E-03      50    3    1        -0.2956440542E-03      0.4659446041E-03
          0                 4           1            50    3     1       0.5433007559E-04      50    3    1         0.2367699563E-04      0.3754923880E-04
          0                 5           1            50    3     1      -0.3784791609E-05      50    3    1        -0.1664490074E-05      0.2653324705E-05
          0                 6           1            50    3     1       0.2272649142E-06      50    3    1         0.1008609477E-06      0.1613399633E-06

    ------------------------------------------------
       NWT REQUIRED            6 OUTER ITERATIONS 
       AND A TOTAL OF          9 INNER ITERATIONS.
    ------------------------------------------------

 NO OUTPUT CONTROL FOR STRESS PERIOD   27   TIME STEP    1
 
 WELLS WITH REDUCED PUMPING FOR STRESS PERIOD    27 TIME STEP     1
   LAY   ROW   COL         APPL.Q          ACT.Q        GW-HEAD       CELL-BOT
     1     3    50  -0.147989E+01  -0.477112E+00   0.424761E+01   0.000000E+00
     1     5    55  -0.147989E+01  -0.385204E+00   0.370860E+01   0.000000E+00
 
 
 SOLVING FOR HEAD 
                                                   Max.-Head-Change                         Max.-Flux-Residual
  Residual-Control   Outer-Iter.   Inner-Iter.     Column Row Layer    Maximum-Head-Change  Column Row Layer    Maximum-Flux-Residual          L2-NORM 
          0                 1           2            50    3     1      -0.4277641390E-01      50    3    1        -0.1662546867E-01      0.3750823990E-01
          0                 2           2            50    3     1       0.4107771044E-02      50    3    1         0.1645160433E-02      0.3661107975E-02
          0                 3           2            50    3     1      -0.3649842107E-03      50    3    1        -0.1482219481E-03      0.3324202501E-03
          0                 4           1            50    3     1       0.2895320660E-04      50    3    1         0.1187135346E-04      0.2698262516E-04
          0                 5           1            50    3     1      -0.2016941428E-05      50    3    1        -0.8345453820E-06      0.1918471107E-05
          0                 6           1            50    3     1       0.1211105967E-06      50    3    1         0.5056963648E-07      0.1171690155E-06

    ------------------------------------------------
       NWT REQUIRED            6 OUTER ITERATIONS 
       AND A TOTAL OF          9 INNER ITERATIONS.
    ------------------------------------------------

 NO OUTPUT CONTROL FOR STRESS PERIOD   27   TIME STEP    2
 
 WELLS WITH REDUCED PUMPING FOR STRESS PERIOD    27 TIME STEP     2
   LAY   ROW   COL         APPL.Q          ACT.Q        GW-HEAD       CELL-BOT
     1     3    50  -0.148024E+01  -0.469958E+00   0.420860E+01   0.000000E+00
     1     5    55  -0.148024E+01  -0.379358E+00   0.367516E+01   0.000000E+00
 
 
 SOLVING FOR HEAD 
                                                   Max.-Head-Change                         Max.-Flux-Residual
  Residual-Control   Outer-Iter.   Inner-Iter.     Column Row Layer    Maximum-Head-Change  Column Row Layer    Maximum-Flux-Residual          L2-NORM 
          0                 1           2            50    3     1      -0.2266826537E-01      50    3    1        -0.7963506890E-02      0.3246726782E-01
          0                 2           2            50    3     1       0.2141102892E-02      50    3    1         0.7912340372E-03      0.3154207894E-02
          0                 3           2            50    3     1      -0.1889187473E-03      50    3    1        -0.7125589366E-04      0.2872789717E-03
          0                 4           1            50    3     1       0.1496550527E-04      50    3    1         0.5707257408E-05      0.2346236312E-04
          0                 5           1            50    3     1      -0.1042378264E-05      50    3    1        -0.4012105620E-06      0.1677549067E-05
          0                 6           1            50    3     1       0.6259151739E-07      50    3    1         0.2431140333E-07      0.1028874938E-06

    ------------------------------------------------
       NWT REQUIRED            6 OUTER ITERATIONS 
       AND A TOTAL OF          9 INNER ITERATIONS.
    ------------------------------------------------

 NO OUTPUT CONTROL FOR STRESS PERIOD   27   TIME STEP    3
 
 WELLS WITH REDUCED PUMPING FOR STRESS PERIOD    27 TIME STEP     3
   LAY   ROW   COL         APPL.Q          ACT.Q        GW-HEAD       CELL-BOT
     1     3    50  -0.147981E+01  -0.465974E+00   0.418790E+01   0.000000E+00
     1     5    55  -0.147981E+01  -0.376025E+00   0.365696E+01   0.000000E+00
 
 
 SOLVING FOR HEAD 
                                                   Max.-Head-Change                         Max.-Flux-Residual
  Residual-Control   Outer-Iter.   Inner-Iter.     Column Row Layer    Maximum-Head-Change  Column Row Layer    Maximum-Flux-Residual          L2-NORM 
          0                 1           2            50    3     1      -0.1305405987E-01      50    3    1        -0.4033269699E-02      0.3119037278E-01
          0                 2           2            50    3     1       0.1202343870E-02      50    3    1         0.4016940480E-03      0.3026108539E-02
          0                 3           1            50    3     1      -0.1051193403E-03      50    3    1        -0.3616658423E-04      0.2760540913E-03
          0                 4           1            50    3     1       0.8310220073E-05      50    3    1         0.2896768166E-05      0.2262335676E-04
          0                 5           1            50    3     1      -0.5786814804E-06      50    3    1        -0.2036356481E-06      0.1623338607E-05

    ------------------------------------------------
       NWT REQUIRED            5 OUTER ITERATIONS 
       AND A TOTAL OF          7 INNER ITERATIONS.
    ------------------------------------------------

 NO OUTPUT CONTROL FOR STRESS PERIOD   27   TIME STEP    4
 
 WELLS WITH REDUCED PUMPING FOR STRESS PERIOD    27 TIME STEP     4
   LAY   ROW   COL         APPL.Q          ACT.Q        GW-HEAD       CELL-BOT
     1     3    50  -0.148020E+01  -0.463882E+00   0.417595E+01   0.000000E+00
     1     5    55  -0.148020E+01  -0.374238E+00   0.364627E+01   0.000000E+00
 
 
 SOLVING FOR HEAD 
                                                   Max.-Head-Change                         Max.-Flux-Residual
  Residual-Control   Outer-Iter.   Inner-Iter.     Column Row Layer    Maximum-Head-Change  Column Row Layer    Maximum-Flux-Residual          L2-NORM 
          0                 1           2            50    2     1      -0.1033333824E-01      50    3    1        -0.2018886593E-02      0.3081667029E-01
          0                 2           2            50    2     1       0.1015484075E-02      50    3    1         0.2014333183E-03      0.2989714333E-02
          0                 3           1            50    2     1      -0.9035709555E-04      50    3    1        -0.1813306454E-04      0.2729883442E-03
          0                 4           1            50    2     1       0.7168118483E-05      50    3    1         0.1452374382E-05      0.2242575870E-04
          0                 5           1            50    2     1      -0.4993086133E-06      50    3    1        -0.1020967784E-06      0.1613740849E-05

    ------------------------------------------------
       NWT REQUIRED            5 OUTER ITERATIONS 
       AND A TOTAL OF          7 INNER ITERATIONS.
    ------------------------------------------------

 NO OUTPUT CONTROL FOR STRESS PERIOD   27   TIME STEP    5
 
 WELLS WITH REDUCED PUMPING FOR STRESS PERIOD    27 TIME STEP     5
   LAY   ROW   COL         APPL.Q          ACT.Q        GW-HEAD       CELL-BOT
     1     3    50  -0.148010E+01  -0.462517E+00   0.416877E+01   0.000000E+00
     1     5    55  -0.148010E+01  -0.373063E+00   0.363975E+01   0.000000E+00
 
 
 SOLVING FOR HEAD 
                                                   Max.-Head-Change                         Max.-Flux-Residual
  Residual-Control   Outer-Iter.   Inner-Iter.     Column Row Layer    Maximum-Head-Change  Column Row Layer    Maximum-Flux-Residual          L2-NORM 
          0                 1           2            72    1     1      -0.1096220833E-01      50    2    1        -0.1467063807E-02      0.3069461601E-01
          0                 2           2            72    1     1       0.1063765288E-02      50    2    1         0.1465876260E-03      0.2978751808E-02
          0                 3           1            72    1     1      -0.9346973354E-04      50    2    1        -0.1319414499E-04      0.2722110333E-03
          0                 4           1            72    1     1       0.7344980919E-05      50    2    1         0.1056841054E-05      0.2240848774E-04
          0                 5           1            72    1     1      -0.5084497463E-06      21    4    1         0.8260801465E-07      0.1616735673E-05

    ------------------------------------------------
       NWT REQUIRED            5 OUTER ITERATIONS 
       AND A TOTAL OF          7 INNER ITERATIONS.
    ------------------------------------------------

 NO OUTPUT CONTROL FOR STRESS PERIOD   27   TIME STEP    6
 
 WELLS WITH REDUCED PUMPING FOR STRESS PERIOD    27 TIME STEP     6
   LAY   ROW   COL         APPL.Q          ACT.Q        GW-HEAD       CELL-BOT
     1     3    50  -0.147991E+01  -0.461568E+00   0.416395E+01   0.000000E+00
     1     5    55  -0.147991E+01  -0.372239E+00   0.363534E+01   0.000000E+00
 
 
 SOLVING FOR HEAD 
                                                   Max.-Head-Change                         Max.-Flux-Residual
  Residual-Control   Outer-Iter.   Inner-Iter.     Column Row Layer    Maximum-Head-Change  Column Row Layer    Maximum-Flux-Residual          L2-NORM 
          0                 1           2            72    1     1      -0.1204790965E-01      72    1    1        -0.1416474499E-02      0.3063669940E-01
          0                 2           2            72    1     1       0.1166363284E-02      72    1    1         0.1416466750E-03      0.2973875589E-02
          0                 3           1            72    1     1      -0.1022680053E-03      72    1    1        -0.1274827441E-04      0.2719834231E-03
          0                 4           1            72    1     1       0.8022058853E-05      72    3    1         0.1021136901E-05      0.2243673390E-04
          0                 5           1            72    1     1      -0.5545497598E-06      21    4    1         0.8588929745E-07      0.1623154534E-05

    ------------------------------------------------
       NWT REQUIRED            5 OUTER ITERATIONS 
       AND A TOTAL OF          7 INNER ITERATIONS.
    ------------------------------------------------

 NO OUTPUT CONTROL FOR STRESS PERIOD   27   TIME STEP    7
 
 WELLS WITH REDUCED PUMPING FOR STRESS PERIOD    27 TIME STEP     7
   LAY   ROW   COL         APPL.Q          ACT.Q        GW-HEAD       CELL-BOT
     1     3    50  -0.147983E+01  -0.460841E+00   0.416017E+01   0.000000E+00
     1     5    55  -0.147983E+01  -0.371603E+00   0.363186E+01   0.000000E+00
 
 
 SOLVING FOR HEAD 
                                                   Max.-Head-Change                         Max.-Flux-Residual
  Residual-Control   Outer-Iter.   Inner-Iter.     Column Row Layer    Maximum-Head-Change  Column Row Layer    Maximum-Flux-Residual          L2-NORM 
          0                 1           2            72    1     1      -0.1324013453E-01      72    1    1        -0.1415541184E-02      0.3059660538E-01
          0                 2           2            72    1     1       0.1278599014E-02      72    1    1         0.1415531792E-03      0.2970313406E-02
          0                 3           2            72    1     1      -0.1118529890E-03      72    1    1        -0.1273987495E-04      0.2718750235E-03
          0                 4           1            72    1     1       0.8756877985E-05      72    1    1         0.1020463143E-05      0.2247697423E-04
          0                 5           1            72    1     1      -0.6043798614E-06      21    4    1         0.8911422000E-07      0.1630573953E-05

    ------------------------------------------------
       NWT REQUIRED            5 OUTER ITERATIONS 
       AND A TOTAL OF          8 INNER ITERATIONS.
    ------------------------------------------------

 NO OUTPUT CONTROL FOR STRESS PERIOD   27   TIME STEP    8
 
 WELLS WITH REDUCED PUMPING FOR STRESS PERIOD    27 TIME STEP     8
   LAY   ROW   COL         APPL.Q          ACT.Q        GW-HEAD       CELL-BOT
     1     3    50  -0.147987E+01  -0.460220E+00   0.415675E+01   0.000000E+00
     1     5    55  -0.147987E+01  -0.371045E+00   0.362863E+01   0.000000E+00
 
 
 SOLVING FOR HEAD 
                                                   Max.-Head-Change                         Max.-Flux-Residual
  Residual-Control   Outer-Iter.   Inner-Iter.     Column Row Layer    Maximum-Head-Change  Column Row Layer    Maximum-Flux-Residual          L2-NORM 
          0                 1           2            72    1     1      -0.1454915630E-01      72    1    1        -0.1414515821E-02      0.3056012142E-01
          0                 2           2            72    1     1       0.1401361443E-02      72    1    1         0.1414504492E-03      0.2967002406E-02
          0                 3           2            72    1     1      -0.1222918155E-03      72    1    1        -0.1273064703E-04      0.2717843519E-03
          0                 4           1            72    1     1       0.9553311570E-05      72    7    1         0.1019723753E-05      0.2251788859E-04
          0                 5           1            71    1     1      -0.6581921525E-06      21    4    1         0.9225735553E-07      0.1638197206E-05

    ------------------------------------------------
       NWT REQUIRED            5 OUTER ITERATIONS 
       AND A TOTAL OF          8 INNER ITERATIONS.
    ------------------------------------------------

 NO OUTPUT CONTROL FOR STRESS PERIOD   27   TIME STEP    9
 
 WELLS WITH REDUCED PUMPING FOR STRESS PERIOD    27 TIME STEP     9
   LAY   ROW   COL         APPL.Q          ACT.Q        GW-HEAD       CELL-BOT
     1     3    50  -0.147994E+01  -0.459630E+00   0.415344E+01   0.000000E+00
     1     5    55  -0.147994E+01  -0.370510E+00   0.362549E+01   0.000000E+00
 
 
 SOLVING FOR HEAD 
                                                   Max.-Head-Change                         Max.-Flux-Residual
  Residual-Control   Outer-Iter.   Inner-Iter.     Column Row Layer    Maximum-Head-Change  Column Row Layer    Maximum-Flux-Residual          L2-NORM 
          0                 1           2            72    1     1      -0.1598620885E-01      72    1    1        -0.1413389496E-02      0.3052163312E-01
          0                 2           2            72    1     1       0.1535623300E-02      72    1    1         0.1413375892E-03      0.2963665470E-02
          0                 3           2            72    1     1      -0.1336587089E-03      72    1    1        -0.1272051038E-04      0.2716975527E-03
          0                 4           1            72    1     1       0.1041646210E-04      21    4    1        -0.1024294765E-05      0.2255946773E-04
          0                 5           1            71    1     1      -0.7163230772E-06      21    4    1         0.9531715861E-07      0.1645967349E-05

    ------------------------------------------------
       NWT REQUIRED            5 OUTER ITERATIONS 
       AND A TOTAL OF          8 INNER ITERATIONS.
    ------------------------------------------------

 NO OUTPUT CONTROL FOR STRESS PERIOD   27   TIME STEP   10
 
 WELLS WITH REDUCED PUMPING FOR STRESS PERIOD    27 TIME STEP    10
   LAY   ROW   COL         APPL.Q          ACT.Q        GW-HEAD       CELL-BOT
     1     3    50  -0.147987E+01  -0.459025E+00   0.415028E+01   0.000000E+00
     1     5    55  -0.147987E+01  -0.369960E+00   0.362245E+01   0.000000E+00
 
 
 SOLVING FOR HEAD 
                                                   Max.-Head-Change                         Max.-Flux-Residual
  Residual-Control   Outer-Iter.   Inner-Iter.     Column Row Layer    Maximum-Head-Change  Column Row Layer    Maximum-Flux-Residual          L2-NORM 
          0                 1           2            72    1     1      -0.1756356161E-01      72    1    1        -0.1412152417E-02      0.3048638225E-01
          0                 2           2            72    1     1       0.1682448280E-02      72    1    1         0.1412136154E-03      0.2960071800E-02
          0                 3           2            72    1     1      -0.1460346045E-03      72    7    1        -0.1270937680E-04      0.2715623481E-03
          0                 4           1            72    1     1       0.1135162864E-04      21    4    1        -0.1047902920E-05      0.2259719326E-04
          0                 5           1            71    1     1      -0.7789847285E-06      21    4    1         0.9824060143E-07      0.1653590494E-05

    ------------------------------------------------
       NWT REQUIRED            5 OUTER ITERATIONS 
       AND A TOTAL OF          8 INNER ITERATIONS.
    ------------------------------------------------

 NO OUTPUT CONTROL FOR STRESS PERIOD   27   TIME STEP   11
 
 WELLS WITH REDUCED PUMPING FOR STRESS PERIOD    27 TIME STEP    11
   LAY   ROW   COL         APPL.Q          ACT.Q        GW-HEAD       CELL-BOT
     1     3    50  -0.148005E+01  -0.458447E+00   0.414686E+01   0.000000E+00
     1     5    55  -0.148005E+01  -0.369430E+00   0.361919E+01   0.000000E+00
 
 
 SOLVING FOR HEAD 
                                                   Max.-Head-Change                         Max.-Flux-Residual
  Residual-Control   Outer-Iter.   Inner-Iter.     Column Row Layer    Maximum-Head-Change  Column Row Layer    Maximum-Flux-Residual          L2-NORM 
          0                 1           2             1    1     1      -0.1930501469E-01      72    1    1        -0.1410793819E-02      0.3044965876E-01
          0                 2           2            72    1     1       0.1842999825E-02      72    7    1         0.1410774460E-03      0.2956407619E-02
          0                 3           2            72    7     1      -0.1595081432E-03      72    7    1        -0.1269714938E-04      0.2713675134E-03
          0                 4           1            72    1     1       0.1236461047E-04      22    4    1        -0.1058257268E-05      0.2262498334E-04
          0                 5           1            71    1     1      -0.8464890284E-06      22    4    1         0.9971726200E-07      0.1660308973E-05

    ------------------------------------------------
       NWT REQUIRED            5 OUTER ITERATIONS 
       AND A TOTAL OF          8 INNER ITERATIONS.
    ------------------------------------------------

 NO OUTPUT CONTROL FOR STRESS PERIOD   27   TIME STEP   12
 
 WELLS WITH REDUCED PUMPING FOR STRESS PERIOD    27 TIME STEP    12
   LAY   ROW   COL         APPL.Q          ACT.Q        GW-HEAD       CELL-BOT
     1     3    50  -0.148008E+01  -0.457820E+00   0.414342E+01   0.000000E+00
     1     5    55  -0.148008E+01  -0.368855E+00   0.361588E+01   0.000000E+00
 
 
 SOLVING FOR HEAD 
                                                   Max.-Head-Change                         Max.-Flux-Residual
  Residual-Control   Outer-Iter.   Inner-Iter.     Column Row Layer    Maximum-Head-Change  Column Row Layer    Maximum-Flux-Residual          L2-NORM 
          0                 1           2             1    1     1      -0.2122035791E-01       1    1    1        -0.1410371861E-02      0.3039605406E-01
          0                 2           2            72    7     1       0.2018549805E-02       1    1    1         0.1410358190E-03      0.2952421966E-02
          0                 3           2            72    7     1      -0.1741764340E-03       1    1    1        -0.1269336542E-04      0.2712996030E-03
          0                 4           1            71    1     1       0.1346330247E-04      22    4    1        -0.1084796807E-05      0.2267205302E-04
          0                 5           1            71    1     1      -0.9191767392E-06      22    4    1         0.1030817316E-06      0.1668715233E-05

    ------------------------------------------------
       NWT REQUIRED            5 OUTER ITERATIONS 
       AND A TOTAL OF          8 INNER ITERATIONS.
    ------------------------------------------------

 NO OUTPUT CONTROL FOR STRESS PERIOD   27   TIME STEP   13
 
 WELLS WITH REDUCED PUMPING FOR STRESS PERIOD    27 TIME STEP    13
   LAY   ROW   COL         APPL.Q          ACT.Q        GW-HEAD       CELL-BOT
     1     3    50  -0.148008E+01  -0.457165E+00   0.413988E+01   0.000000E+00
     1     5    55  -0.148008E+01  -0.368252E+00   0.361246E+01   0.000000E+00
 
 
 SOLVING FOR HEAD 
                                                   Max.-Head-Change                         Max.-Flux-Residual
  Residual-Control   Outer-Iter.   Inner-Iter.     Column Row Layer    Maximum-Head-Change  Column Row Layer    Maximum-Flux-Residual          L2-NORM 
          0                 1           2            16    7     1      -0.2328105724E-01       1    1    1        -0.1409691366E-02      0.3033276594E-01
          0                 2           2            72    7     1       0.2210487623E-02       1    1    1         0.1409664152E-03      0.2946416579E-02
          0                 3           2            72    7     1      -0.1901458515E-03       1    1    1        -0.1268715138E-04      0.2709709814E-03
          0                 4           1            71    1     1       0.1465331582E-04      22    4    1        -0.1105572448E-05      0.2269542471E-04
          0                 5           1            71    1     1      -0.9974162878E-06      22    4    1         0.1057567971E-06      0.1675318028E-05

    ------------------------------------------------
       NWT REQUIRED            5 OUTER ITERATIONS 
       AND A TOTAL OF          8 INNER ITERATIONS.
    ------------------------------------------------

 NO OUTPUT CONTROL FOR STRESS PERIOD   27   TIME STEP   14
 
 WELLS WITH REDUCED PUMPING FOR STRESS PERIOD    27 TIME STEP    14
   LAY   ROW   COL         APPL.Q          ACT.Q        GW-HEAD       CELL-BOT
     1     3    50  -0.148003E+01  -0.456475E+00   0.413622E+01   0.000000E+00
     1     5    55  -0.148003E+01  -0.367614E+00   0.360888E+01   0.000000E+00
 
 
 SOLVING FOR HEAD 
                                                   Max.-Head-Change                         Max.-Flux-Residual
  Residual-Control   Outer-Iter.   Inner-Iter.     Column Row Layer    Maximum-Head-Change  Column Row Layer    Maximum-Flux-Residual          L2-NORM 
          0                 1           2            72    1     1      -0.2556274171E-01      16    1    1        -0.1406070918E-02      0.3027323294E-01
          0                 2           2            72    7     1       0.2420329922E-02      16    7    1         0.1406042096E-03      0.2940014088E-02
          0                 3           2            72    7     1      -0.2075328899E-03      16    7    1        -0.1265457809E-04      0.2705297180E-03
          0                 4           1            71    1     1       0.1594228742E-04      22    4    1        -0.1125624639E-05      0.2270529984E-04
          0                 5           1            71    1     1      -0.1081609350E-05      22    4    1         0.1083280274E-06      0.1680715148E-05
          0                 6           1            71    1     1       0.6362799683E-07      22    4    1        -0.7998345097E-08      0.1068620736E-06

    ------------------------------------------------
       NWT REQUIRED            6 OUTER ITERATIONS 
       AND A TOTAL OF          9 INNER ITERATIONS.
    ------------------------------------------------

 NO OUTPUT CONTROL FOR STRESS PERIOD   27   TIME STEP   15
 
 WELLS WITH REDUCED PUMPING FOR STRESS PERIOD    27 TIME STEP    15
   LAY   ROW   COL         APPL.Q          ACT.Q        GW-HEAD       CELL-BOT
     1     3    50  -0.148003E+01  -0.455753E+00   0.413231E+01   0.000000E+00
     1     5    55  -0.148003E+01  -0.366943E+00   0.360506E+01   0.000000E+00
 
 
 SOLVING FOR HEAD 
                                                   Max.-Head-Change                         Max.-Flux-Residual
  Residual-Control   Outer-Iter.   Inner-Iter.     Column Row Layer    Maximum-Head-Change  Column Row Layer    Maximum-Flux-Residual          L2-NORM 
          0                 1           2            72    1     1      -0.2806836104E-01      72    1    1        -0.1403888990E-02      0.3021726796E-01
          0                 2           2            72    7     1       0.2649731228E-02      72    7    1         0.1403851615E-03      0.2934064971E-02
          0                 3           2            72    7     1      -0.2264650989E-03      72    7    1        -0.1263500069E-04      0.2701607061E-03
          0                 4           1            71    1     1       0.1733863422E-04      22    4    1        -0.1144413176E-05      0.2272276702E-04
          0                 5           1            71    1     1      -0.1172197957E-05      22    4    1         0.1107625387E-06      0.1686510574E-05
          0                 6           1            71    1     1       0.6872477742E-07      22    4    1        -0.8223530301E-08      0.1075665500E-06

    ------------------------------------------------
       NWT REQUIRED            6 OUTER ITERATIONS 
       AND A TOTAL OF          9 INNER ITERATIONS.
    ------------------------------------------------

 NO OUTPUT CONTROL FOR STRESS PERIOD   27   TIME STEP   16
 
 WELLS WITH REDUCED PUMPING FOR STRESS PERIOD    27 TIME STEP    16
   LAY   ROW   COL         APPL.Q          ACT.Q        GW-HEAD       CELL-BOT
     1     3    50  -0.148003E+01  -0.454984E+00   0.412814E+01   0.000000E+00
     1     5    55  -0.148003E+01  -0.366225E+00   0.360097E+01   0.000000E+00
 
 
 SOLVING FOR HEAD 
                                                   Max.-Head-Change                         Max.-Flux-Residual
  Residual-Control   Outer-Iter.   Inner-Iter.     Column Row Layer    Maximum-Head-Change  Column Row Layer    Maximum-Flux-Residual          L2-NORM 
          0                 1           2            72    7     1      -0.3081490778E-01      72    1    1        -0.1401719757E-02      0.3015863471E-01
          0                 2           2            72    7     1       0.2900491939E-02      72    7    1         0.1401676074E-03      0.2928342275E-02
          0                 3           2            72    7     1      -0.2470817356E-03      72    7    1        -0.1261547355E-04      0.2697619351E-03
          0                 4           1            71    1     1       0.1885159673E-04      23    4    1        -0.1150070471E-05      0.2273117847E-04
          0                 5           1            71    1     1      -0.1269658593E-05      23    4    1         0.1113576360E-06      0.1690998545E-05
          0                 6           1            71    1     1       0.7416201945E-07      23    4    1        -0.8273595142E-08      0.1081637687E-06

    ------------------------------------------------
       NWT REQUIRED            6 OUTER ITERATIONS 
       AND A TOTAL OF          9 INNER ITERATIONS.
    ------------------------------------------------

 NO OUTPUT CONTROL FOR STRESS PERIOD   27   TIME STEP   17
 
 WELLS WITH REDUCED PUMPING FOR STRESS PERIOD    27 TIME STEP    17
   LAY   ROW   COL         APPL.Q          ACT.Q        GW-HEAD       CELL-BOT
     1     3    50  -0.148006E+01  -0.454169E+00   0.412367E+01   0.000000E+00
     1     5    55  -0.148006E+01  -0.365460E+00   0.359656E+01   0.000000E+00
 
 
 SOLVING FOR HEAD 
                                                   Max.-Head-Change                         Max.-Flux-Residual
  Residual-Control   Outer-Iter.   Inner-Iter.     Column Row Layer    Maximum-Head-Change  Column Row Layer    Maximum-Flux-Residual          L2-NORM 
          0                 1           2             6    7     1      -0.3386244394E-01      72    1    1        -0.1399337883E-02      0.3009666543E-01
          0                 2           2             9    7     1       0.3180658776E-02      72    7    1         0.1399286970E-03      0.2922096541E-02
          0                 3           2            72    7     1      -0.2695350025E-03      72    7    1        -0.1259403035E-04      0.2692980885E-03
          0                 4           1            71    1     1       0.2049131501E-04      23    4    1        -0.1167413689E-05      0.2273089204E-04
          0                 5           1            71    1     1      -0.1374508794E-05      23    4    1         0.1137374284E-06      0.1694229497E-05
          0                 6           1            71    1     1       0.7995857897E-07      23    4    1        -0.8498940218E-08      0.1086485506E-06

    ------------------------------------------------
       NWT REQUIRED            6 OUTER ITERATIONS 
       AND A TOTAL OF          9 INNER ITERATIONS.
    ------------------------------------------------

 NO OUTPUT CONTROL FOR STRESS PERIOD   27   TIME STEP   18
 
 WELLS WITH REDUCED PUMPING FOR STRESS PERIOD    27 TIME STEP    18
   LAY   ROW   COL         APPL.Q          ACT.Q        GW-HEAD       CELL-BOT
     1     3    50  -0.148005E+01  -0.453291E+00   0.411893E+01   0.000000E+00
     1     5    55  -0.148005E+01  -0.364634E+00   0.359186E+01   0.000000E+00
 
 
 SOLVING FOR HEAD 
                                                   Max.-Head-Change                         Max.-Flux-Residual
  Residual-Control   Outer-Iter.   Inner-Iter.     Column Row Layer    Maximum-Head-Change  Column Row Layer    Maximum-Flux-Residual          L2-NORM 
          0                 1           2             6    7     1      -0.3722749664E-01       5    7    1        -0.1398156379E-02      0.3002990856E-01
          0                 2           2             9    7     1       0.3489866538E-02       5    7    1         0.1398127050E-03      0.2915614828E-02
          0                 3           2            12    7     1      -0.2945305329E-03       5    1    1        -0.1258346093E-04      0.2688260101E-03
          0                 4           1            71    1     1       0.2226888579E-04      23    4    1        -0.1232498828E-05      0.2273017506E-04
          0                 5           1            71    1     1      -0.1487305498E-05      23    4    1         0.1192240866E-06      0.1696908849E-05
          0                 6           1            71    1     1       0.8613443215E-07      23    4    1        -0.8878547675E-08      0.1090652322E-06

    ------------------------------------------------
       NWT REQUIRED            6 OUTER ITERATIONS 
       AND A TOTAL OF          9 INNER ITERATIONS.
    ------------------------------------------------

 NO OUTPUT CONTROL FOR STRESS PERIOD   27   TIME STEP   19
 
 WELLS WITH REDUCED PUMPING FOR STRESS PERIOD    27 TIME STEP    19
   LAY   ROW   COL         APPL.Q          ACT.Q        GW-HEAD       CELL-BOT
     1     3    50  -0.147997E+01  -0.452345E+00   0.411393E+01   0.000000E+00
     1     5    55  -0.147997E+01  -0.363742E+00   0.358688E+01   0.000000E+00
 
 
 SOLVING FOR HEAD 
                                                   Max.-Head-Change                         Max.-Flux-Residual
  Residual-Control   Outer-Iter.   Inner-Iter.     Column Row Layer    Maximum-Head-Change  Column Row Layer    Maximum-Flux-Residual          L2-NORM 
          0                 1           2             5    1     1      -0.4092593652E-01       5    7    1        -0.1397593821E-02      0.2995903310E-01
          0                 2           2             8    7     1       0.3829368416E-02       5    1    1         0.1397560584E-03      0.2908608423E-02
          0                 3           2            11    7     1      -0.3224149166E-03       5    1    1        -0.1257840492E-04      0.2682824421E-03
          0                 4           1            71    1     1       0.2419640151E-04      24    4    1        -0.1243993406E-05      0.2272167528E-04
          0                 5           1            71    1     1      -0.1608635405E-05      24    4    1         0.1206323184E-06      0.1698244546E-05
          0                 6           1            71    1     1       0.9270829314E-07      24    4    1        -0.9013806590E-08      0.1093504162E-06

    ------------------------------------------------
       NWT REQUIRED            6 OUTER ITERATIONS 
       AND A TOTAL OF          9 INNER ITERATIONS.
    ------------------------------------------------

 NO OUTPUT CONTROL FOR STRESS PERIOD   27   TIME STEP   20
 
 WELLS WITH REDUCED PUMPING FOR STRESS PERIOD    27 TIME STEP    20
   LAY   ROW   COL         APPL.Q          ACT.Q        GW-HEAD       CELL-BOT
     1     3    50  -0.147996E+01  -0.451340E+00   0.410850E+01   0.000000E+00
     1     5    55  -0.147996E+01  -0.362789E+00   0.358144E+01   0.000000E+00
 
 
 SOLVING FOR HEAD 
                                                   Max.-Head-Change                         Max.-Flux-Residual
  Residual-Control   Outer-Iter.   Inner-Iter.     Column Row Layer    Maximum-Head-Change  Column Row Layer    Maximum-Flux-Residual          L2-NORM 
          0                 1           2             5    1     1      -0.4499045316E-01       5    7    1        -0.1396987656E-02      0.2988373680E-01
          0                 2           2             7    7     1       0.4202098987E-02       5    1    1         0.1396950047E-03      0.2901151561E-02
          0                 3           2            11    7     1      -0.3529903764E-03       4    3    1        -0.1257340793E-04      0.2677053330E-03
          0                 4           1            13    7     1       0.2634876754E-04      25    4    1        -0.1238493823E-05      0.2270855928E-04
          0                 5           1            71    1     1      -0.1739115268E-05      24    4    1         0.1214274086E-06      0.1698185527E-05
          0                 6           1            69    1     1       0.9973159222E-07      24    4    1        -0.9152852698E-08      0.1094818222E-06

    ------------------------------------------------
       NWT REQUIRED            6 OUTER ITERATIONS 
       AND A TOTAL OF          9 INNER ITERATIONS.
    ------------------------------------------------

 NO OUTPUT CONTROL FOR STRESS PERIOD   27   TIME STEP   21
 
 WELLS WITH REDUCED PUMPING FOR STRESS PERIOD    27 TIME STEP    21
   LAY   ROW   COL         APPL.Q          ACT.Q        GW-HEAD       CELL-BOT
     1     3    50  -0.148000E+01  -0.450265E+00   0.410259E+01   0.000000E+00
     1     5    55  -0.148000E+01  -0.361766E+00   0.357553E+01   0.000000E+00
 
 
 SOLVING FOR HEAD 
                                                   Max.-Head-Change                         Max.-Flux-Residual
  Residual-Control   Outer-Iter.   Inner-Iter.     Column Row Layer    Maximum-Head-Change  Column Row Layer    Maximum-Flux-Residual          L2-NORM 
          0                 1           2             5    1     1      -0.4945677901E-01       5    7    1        -0.1396326755E-02      0.2980018624E-01
          0                 2           2             7    7     1       0.4611361496E-02       4    3    1         0.1396311893E-03      0.2893225298E-02
          0                 3           2            10    1     1      -0.3865207525E-03       4    3    1        -0.1256828231E-04      0.2670661247E-03
          0                 4           1            13    7     1       0.2875926711E-04      24    4    1        -0.1244072628E-05      0.2268799801E-04
          0                 5           1            71    1     1      -0.1879352992E-05      24    4    1         0.1228973616E-06      0.1696384234E-05
          0                 6           1            69    1     1       0.1071975114E-06      24    4    1        -0.9294058856E-08      0.1094344836E-06

    ------------------------------------------------
       NWT REQUIRED            6 OUTER ITERATIONS 
       AND A TOTAL OF          9 INNER ITERATIONS.
    ------------------------------------------------

 NO OUTPUT CONTROL FOR STRESS PERIOD   27   TIME STEP   22
 
 WELLS WITH REDUCED PUMPING FOR STRESS PERIOD    27 TIME STEP    22
   LAY   ROW   COL         APPL.Q          ACT.Q        GW-HEAD       CELL-BOT
     1     3    50  -0.147999E+01  -0.449107E+00   0.409631E+01   0.000000E+00
     1     5    55  -0.147999E+01  -0.360660E+00   0.356921E+01   0.000000E+00
 
 
 SOLVING FOR HEAD 
                                                   Max.-Head-Change                         Max.-Flux-Residual
  Residual-Control   Outer-Iter.   Inner-Iter.     Column Row Layer    Maximum-Head-Change  Column Row Layer    Maximum-Flux-Residual          L2-NORM 
          0                 1           3             5    1     1      -0.5436549488E-01       4    1    1        -0.1395606174E-02      0.2971125280E-01
          0                 2           2             6    7     1       0.5063234225E-02       4    1    1         0.1395558524E-03      0.2884335677E-02
          0                 3           2             6    7     1      -0.4234396383E-03       4    3    1        -0.1256179597E-04      0.2662690684E-03
          0                 4           1            13    7     1       0.3139292096E-04      25    4    1        -0.1242802814E-05      0.2264658079E-04
          0                 5           1            71    1     1      -0.2029916994E-05      25    4    1         0.1214383225E-06      0.1691217538E-05
          0                 6           1            69    1     1       0.1151170356E-06      26    4    1        -0.9133817258E-08      0.1090748420E-06

    ------------------------------------------------
       NWT REQUIRED            6 OUTER ITERATIONS 
       AND A TOTAL OF         10 INNER ITERATIONS.
    ------------------------------------------------

 NO OUTPUT CONTROL FOR STRESS PERIOD   27   TIME STEP   23
 
 WELLS WITH REDUCED PUMPING FOR STRESS PERIOD    27 TIME STEP    23
   LAY   ROW   COL         APPL.Q          ACT.Q        GW-HEAD       CELL-BOT
     1     3    50  -0.148003E+01  -0.447870E+00   0.408952E+01   0.000000E+00
     1     5    55  -0.148003E+01  -0.359476E+00   0.356237E+01   0.000000E+00
 
 
 SOLVING FOR HEAD 
                                                   Max.-Head-Change                         Max.-Flux-Residual
  Residual-Control   Outer-Iter.   Inner-Iter.     Column Row Layer    Maximum-Head-Change  Column Row Layer    Maximum-Flux-Residual          L2-NORM 
          0                 1           3             6    7     1      -0.5988332104E-01       4    1    1        -0.1394827852E-02      0.2962062772E-01
          0                 2           2             6    7     1       0.5594910321E-02       4    1    1         0.1394789072E-03      0.2875329097E-02
          0                 3           2             6    7     1      -0.4693386142E-03       4    3    1        -0.1255572333E-04      0.2653638228E-03
          0                 4           1             5    1     1       0.3484680802E-04      25    4    1        -0.1258125359E-05      0.2258072868E-04
          0                 5           1            71    1     1      -0.2190842000E-05      25    4    1         0.1233049041E-06      0.1681357844E-05
          0                 6           1            69    1     1       0.1234883801E-06      26    4    1        -0.9276860169E-08      0.1082575640E-06

    ------------------------------------------------
       NWT REQUIRED            6 OUTER ITERATIONS 
       AND A TOTAL OF         10 INNER ITERATIONS.
    ------------------------------------------------

 NO OUTPUT CONTROL FOR STRESS PERIOD   27   TIME STEP   24
 
 WELLS WITH REDUCED PUMPING FOR STRESS PERIOD    27 TIME STEP    24
   LAY   ROW   COL         APPL.Q          ACT.Q        GW-HEAD       CELL-BOT
     1     3    50  -0.147999E+01  -0.446540E+00   0.408233E+01   0.000000E+00
     1     5    55  -0.147999E+01  -0.358199E+00   0.355509E+01   0.000000E+00
 
 
 SOLVING FOR HEAD 
                                                   Max.-Head-Change                         Max.-Flux-Residual
  Residual-Control   Outer-Iter.   Inner-Iter.     Column Row Layer    Maximum-Head-Change  Column Row Layer    Maximum-Flux-Residual          L2-NORM 
          0                 1           3             5    1     1      -0.6587975844E-01       6    5    1        -0.1397652046E-02      0.2952240053E-01
          0                 2           2             5    1     1       0.6149231696E-02       6    5    1         0.1397574690E-03      0.2865999149E-02
          0                 3           2             7    7     1      -0.5152603877E-03       6    5    1        -0.1257835542E-04      0.2644370223E-03
          0                 4           1             4    1     1       0.3818093181E-04      25    4    1        -0.1253258482E-05      0.2251463694E-04
          0                 5           1             1    1     1      -0.2372966397E-05      26    4    1         0.1241371983E-06      0.1670491729E-05
          0                 6           1            69    1     1       0.1323273914E-06      26    4    1        -0.9387417066E-08      0.1073390082E-06

    ------------------------------------------------
       NWT REQUIRED            6 OUTER ITERATIONS 
       AND A TOTAL OF         10 INNER ITERATIONS.
    ------------------------------------------------

 NO OUTPUT CONTROL FOR STRESS PERIOD   27   TIME STEP   25
 
 WELLS WITH REDUCED PUMPING FOR STRESS PERIOD    27 TIME STEP    25
   LAY   ROW   COL         APPL.Q          ACT.Q        GW-HEAD       CELL-BOT
     1     3    50  -0.148002E+01  -0.445120E+00   0.407456E+01   0.000000E+00
     1     5    55  -0.148002E+01  -0.356831E+00   0.354720E+01   0.000000E+00
 
 
 SOLVING FOR HEAD 
                                                   Max.-Head-Change                         Max.-Flux-Residual
  Residual-Control   Outer-Iter.   Inner-Iter.     Column Row Layer    Maximum-Head-Change  Column Row Layer    Maximum-Flux-Residual          L2-NORM 
          0                 1           3             1    1     1      -0.7247149981E-01       3    5    1        -0.1397484243E-02      0.2941720741E-01
          0                 2           2             1    1     1       0.6755658176E-02       3    5    1         0.1397399390E-03      0.2855446780E-02
          0                 3           2             1    1     1      -0.5649543055E-03       4    3    1        -0.1258245230E-04      0.2634256825E-03
          0                 4           1             1    1     1       0.4175555051E-04      26    4    1        -0.1264984025E-05      0.2244408780E-04
          0                 5           1             1    1     1      -0.2554122359E-05      26    4    1         0.1262430622E-06      0.1657089638E-05
          0                 6           1            69    1     1       0.1415325607E-06      26    4    1        -0.9559705916E-08      0.1061696766E-06

    ------------------------------------------------
       NWT REQUIRED            6 OUTER ITERATIONS 
       AND A TOTAL OF         10 INNER ITERATIONS.
    ------------------------------------------------

 NO OUTPUT CONTROL FOR STRESS PERIOD   27   TIME STEP   26
 
 WELLS WITH REDUCED PUMPING FOR STRESS PERIOD    27 TIME STEP    26
   LAY   ROW   COL         APPL.Q          ACT.Q        GW-HEAD       CELL-BOT
     1     3    50  -0.148001E+01  -0.443599E+00   0.406628E+01   0.000000E+00
     1     5    55  -0.148001E+01  -0.355365E+00   0.353878E+01   0.000000E+00
 
 
 SOLVING FOR HEAD 
                                                   Max.-Head-Change                         Max.-Flux-Residual
  Residual-Control   Outer-Iter.   Inner-Iter.     Column Row Layer    Maximum-Head-Change  Column Row Layer    Maximum-Flux-Residual          L2-NORM 
          0                 1           3             1    1     1      -0.7965736839E-01       1    5    1        -0.1397962502E-02      0.2929946432E-01
          0                 2           2             1    1     1       0.7417585730E-02       1    5    1         0.1397861994E-03      0.2844410984E-02
          0                 3           2             1    1     1      -0.6194085920E-03       1    5    1        -0.1258170281E-04      0.2624574278E-03
          0                 4           1             1    1     1       0.4564588453E-04      26    4    1        -0.1274885040E-05      0.2238356881E-04
          0                 5           1            69    1     1      -0.2736450793E-05      26    4    1         0.1278026360E-06      0.1642046800E-05
          0                 6           1            69    1     1       0.1508262599E-06      26    4    1        -0.9675755308E-08      0.1048189000E-06

    ------------------------------------------------
       NWT REQUIRED            6 OUTER ITERATIONS 
       AND A TOTAL OF         10 INNER ITERATIONS.
    ------------------------------------------------

 NO OUTPUT CONTROL FOR STRESS PERIOD   27   TIME STEP   27
 
 WELLS WITH REDUCED PUMPING FOR STRESS PERIOD    27 TIME STEP    27
   LAY   ROW   COL         APPL.Q          ACT.Q        GW-HEAD       CELL-BOT
     1     3    50  -0.148000E+01  -0.441970E+00   0.405740E+01   0.000000E+00
     1     5    55  -0.148000E+01  -0.353788E+00   0.352970E+01   0.000000E+00
 
 
 SOLVING FOR HEAD 
                                                   Max.-Head-Change                         Max.-Flux-Residual
  Residual-Control   Outer-Iter.   Inner-Iter.     Column Row Layer    Maximum-Head-Change  Column Row Layer    Maximum-Flux-Residual          L2-NORM 
          0                 1           3             1    1     1      -0.8752710873E-01       1    5    1        -0.1395985480E-02      0.2917107205E-01
          0                 2           2             1    1     1       0.8141837793E-02       1    5    1         0.1395881171E-03      0.2831869858E-02
          0                 3           2             3    1     1      -0.6789213383E-03       4    3    1        -0.1257088071E-04      0.2612303100E-03
          0                 4           1             3    1     1       0.4987264063E-04      27    4    1        -0.1268719735E-05      0.2228900936E-04
          0                 5           1            69    1     1      -0.2933204848E-05      28    4    1         0.1251318213E-06      0.1620927476E-05
          0                 6           1            67    1     1       0.1606489436E-06      28    4    1        -0.9427481018E-08      0.1029966656E-06

    ------------------------------------------------
       NWT REQUIRED            6 OUTER ITERATIONS 
       AND A TOTAL OF         10 INNER ITERATIONS.
    ------------------------------------------------

 NO OUTPUT CONTROL FOR STRESS PERIOD   27   TIME STEP   28
 
 WELLS WITH REDUCED PUMPING FOR STRESS PERIOD    27 TIME STEP    28
   LAY   ROW   COL         APPL.Q          ACT.Q        GW-HEAD       CELL-BOT
     1     3    50  -0.147997E+01  -0.440235E+00   0.404798E+01   0.000000E+00
     1     5    55  -0.147997E+01  -0.352108E+00   0.352005E+01   0.000000E+00
 
 
 SOLVING FOR HEAD 
                                                   Max.-Head-Change                         Max.-Flux-Residual
  Residual-Control   Outer-Iter.   Inner-Iter.     Column Row Layer    Maximum-Head-Change  Column Row Layer    Maximum-Flux-Residual          L2-NORM 
          0                 1           3             1    1     1      -0.9616669601E-01       1    2    1        -0.1394447476E-02      0.2903459991E-01
          0                 2           2             1    1     1       0.8936668979E-02       1    7    1         0.1394358182E-03      0.2818422722E-02
          0                 3           2             4    1     1      -0.7442795019E-03       4    3    1        -0.1256800665E-04      0.2598749496E-03
          0                 4           1             3    1     1       0.5448051737E-04      28    4    1        -0.1263732919E-05      0.2217382048E-04
          0                 5           1            69    1     1      -0.3140106436E-05      28    4    1         0.1269402095E-06      0.1594811353E-05
          0                 6           1            67    1     1       0.1702789373E-06      28    4    1        -0.9540995549E-08      0.1008291566E-06

    ------------------------------------------------
       NWT REQUIRED            6 OUTER ITERATIONS 
       AND A TOTAL OF         10 INNER ITERATIONS.
    ------------------------------------------------

 NO OUTPUT CONTROL FOR STRESS PERIOD   27   TIME STEP   29
 
 WELLS WITH REDUCED PUMPING FOR STRESS PERIOD    27 TIME STEP    29
   LAY   ROW   COL         APPL.Q          ACT.Q        GW-HEAD       CELL-BOT
     1     3    50  -0.148002E+01  -0.438381E+00   0.403777E+01   0.000000E+00
     1     5    55  -0.148002E+01  -0.350305E+00   0.350958E+01   0.000000E+00
 
 
 SOLVING FOR HEAD 
                                                   Max.-Head-Change                         Max.-Flux-Residual
  Residual-Control   Outer-Iter.   Inner-Iter.     Column Row Layer    Maximum-Head-Change  Column Row Layer    Maximum-Flux-Residual          L2-NORM 
          0                 1           3             1    1     1      -0.1056506721E+00       1    7    1        -0.1392922954E-02      0.2888382896E-01
          0                 2           3             1    1     1       0.9809496812E-02       1    1    1         0.1392824401E-03      0.2804085657E-02
          0                 3           2             1    1     1      -0.8161505889E-03       1    7    1        -0.1253646415E-04      0.2585720346E-03
          0                 4           1             3    1     1       0.5950723055E-04      28    4    1        -0.1273940878E-05      0.2206812308E-04
          0                 5           1            69    7     1      -0.3369907209E-05      28    4    1         0.1283777635E-06      0.1567242419E-05
          0                 6           1            67    1     1       0.1803128532E-06      28    4    1        -0.9598814188E-08      0.9868427749E-07

    ------------------------------------------------
       NWT REQUIRED            6 OUTER ITERATIONS 
       AND A TOTAL OF         11 INNER ITERATIONS.
    ------------------------------------------------

 NO OUTPUT CONTROL FOR STRESS PERIOD   27   TIME STEP   30
 
 WELLS WITH REDUCED PUMPING FOR STRESS PERIOD    27 TIME STEP    30
   LAY   ROW   COL         APPL.Q          ACT.Q        GW-HEAD       CELL-BOT
     1     3    50  -0.147999E+01  -0.436409E+00   0.402701E+01   0.000000E+00
     1     5    55  -0.147999E+01  -0.348386E+00   0.349850E+01   0.000000E+00
 



 STREAM LISTING     PERIOD     27   STEP       30

 LAYER ROW COL. STREAM  RCH.   FLOW INTO    STREAM     FLOW OUT OF   OVRLND.    DIRECT     STREAM      STREAM      STREAM     STREAM  STREAMBED   FLOW TO   CHNG. UNSAT. 
                SEG.NO.  NO.   STRM. RCH.    LOSS       STRM. RCH.   RUNOFF     PRECIP       ET         HEAD        DEPTH      WIDTH  CONDCTNC.   WAT. TAB.

   1    4    1     1     1    7.5000E-01  5.0822E-04   7.4949E-01  0.000E+00  0.000E+00  0.000E+00  1.40495E+02  6.447E-01  2.584E+00  4.440E-04  4.043E-04  1.039E-04
   1    4    2     1     2    7.4949E-01  5.0805E-04   7.4898E-01  0.000E+00  0.000E+00  0.000E+00  1.40194E+02  6.445E-01  2.584E+00  4.439E-04  4.041E-04  1.039E-04
   1    4    3     1     3    7.4898E-01  5.0788E-04   7.4848E-01  0.000E+00  0.000E+00  0.000E+00  1.39894E+02  6.443E-01  2.583E+00  4.439E-04  4.039E-04  1.039E-04
   1    4    4     1     4    7.4848E-01  5.0771E-04   7.4797E-01  0.000E+00  0.000E+00  0.000E+00  1.39594E+02  6.441E-01  2.583E+00  4.438E-04  4.038E-04  1.039E-04
   1    4    5     1     5    7.4797E-01  5.0755E-04   7.4746E-01  0.000E+00  0.000E+00  0.000E+00  1.39294E+02  6.438E-01  2.583E+00  4.437E-04  4.036E-04  1.039E-04
   1    4    6     1     6    7.4746E-01  5.0738E-04   7.4695E-01  0.000E+00  0.000E+00  0.000E+00  1.38994E+02  6.436E-01  2.583E+00  4.436E-04  4.034E-04  1.040E-04
   1    4    7     1     7    7.4695E-01  5.0721E-04   7.4645E-01  0.000E+00  0.000E+00  0.000E+00  1.38693E+02  6.434E-01  2.582E+00  4.436E-04  4.033E-04  1.039E-04
   1    4    8     1     8    7.4645E-01  5.0704E-04   7.4594E-01  0.000E+00  0.000E+00  0.000E+00  1.38393E+02  6.432E-01  2.582E+00  4.435E-04  4.031E-04  1.039E-04
   1    4    9     1     9    7.4594E-01  5.0687E-04   7.4543E-01  0.000E+00  0.000E+00  0.000E+00  1.38093E+02  6.430E-01  2.582E+00  4.434E-04  4.029E-04  1.039E-04
   1    4   10     1    10    7.4543E-01  5.0670E-04   7.4493E-01  0.000E+00  0.000E+00  0.000E+00  1.37793E+02  6.428E-01  2.582E+00  4.434E-04  4.028E-04  1.039E-04
   1    4   11     1    11    7.4493E-01  5.0653E-04   7.4442E-01  0.000E+00  0.000E+00  0.000E+00  1.37493E+02  6.426E-01  2.581E+00  4.433E-04  4.026E-04  1.039E-04
   1    4   12     1    12    7.4442E-01  5.0636E-04   7.4391E-01  0.000E+00  0.000E+00  0.000E+00  1.37192E+02  6.424E-01  2.581E+00  4.432E-04  4.025E-04  1.039E-04
   1    4   13     1    13    7.4391E-01  5.0619E-04   7.4341E-01  0.000E+00  0.000E+00  0.000E+00  1.36892E+02  6.422E-01  2.581E+00  4.432E-04  4.023E-04  1.039E-04
   1    4   14     1    14    7.4341E-01  5.0602E-04   7.4290E-01  0.000E+00  0.000E+00  0.000E+00  1.36592E+02  6.420E-01  2.581E+00  4.431E-04  4.022E-04  1.038E-04
   1    4   15     1    15    7.4290E-01  5.0585E-04   7.4239E-01  0.000E+00  0.000E+00  0.000E+00  1.36292E+02  6.418E-01  2.580E+00  4.430E-04  4.021E-04  1.038E-04
   1    4   16     1    16    7.4239E-01  5.0569E-04   7.4189E-01  0.000E+00  0.000E+00  0.000E+00  1.35992E+02  6.416E-01  2.580E+00  4.430E-04  4.019E-04  1.037E-04
   1    4   17     1    17    7.4189E-01  5.0552E-04   7.4138E-01  0.000E+00  0.000E+00  0.000E+00  1.35691E+02  6.414E-01  2.580E+00  4.429E-04  4.275E-04  7.800E-05
   1    4   18     1    18    7.4138E-01  5.0535E-04   7.4088E-01  0.000E+00  0.000E+00  0.000E+00  1.35391E+02  6.412E-01  2.580E+00  4.428E-04  4.308E-04  7.451E-05
   1    4   19     1    19    7.4088E-01  5.0518E-04   7.4037E-01  0.000E+00  0.000E+00  0.000E+00  1.35091E+02  6.409E-01  2.579E+00  4.428E-04  4.307E-04  7.444E-05
   1    4   20     1    20    7.4037E-01  5.0501E-04   7.3987E-01  0.000E+00  0.000E+00  0.000E+00  1.34791E+02  6.407E-01  2.579E+00  4.427E-04  4.306E-04  7.437E-05
   1    4   21     1    21    7.3987E-01  5.0484E-04   7.3936E-01  0.000E+00  0.000E+00  0.000E+00  1.34491E+02  6.405E-01  2.579E+00  4.426E-04  4.306E-04  7.427E-05
   1    4   22     1    22    7.3936E-01  5.0467E-04   7.3886E-01  0.000E+00  0.000E+00  0.000E+00  1.34190E+02  6.403E-01  2.579E+00  4.426E-04  4.305E-04  7.416E-05
   1    4   23     1    23    7.3886E-01  5.0450E-04   7.3835E-01  0.000E+00  0.000E+00  0.000E+00  1.33890E+02  6.401E-01  2.578E+00  4.425E-04  4.305E-04  7.402E-05
   1    4   24     1    24    7.3835E-01  5.0434E-04   7.3785E-01  0.000E+00  0.000E+00  0.000E+00  1.33590E+02  6.399E-01  2.578E+00  4.424E-04  4.305E-04  7.386E-05
   1    4   25     1    25    7.3785E-01  5.0417E-04   7.3735E-01  0.000E+00  0.000E+00  0.000E+00  1.33290E+02  6.397E-01  2.578E+00  4.424E-04  4.305E-04  7.368E-05
   1    4   26     1    26    7.3735E-01  5.0400E-04   7.3684E-01  0.000E+00  0.000E+00  0.000E+00  1.32990E+02  6.395E-01  2.578E+00  4.423E-04  4.305E-04  7.347E-05
   1    4   27     1    27    7.3684E-01  5.0383E-04   7.3634E-01  0.000E+00  0.000E+00  0.000E+00  1.32689E+02  6.393E-01  2.577E+00  4.422E-04  4.305E-04  7.335E-05
   1    4   28     1    28    7.3634E-01  5.0366E-04   7.3583E-01  0.000E+00  0.000E+00  0.000E+00  1.32389E+02  6.391E-01  2.577E+00  4.422E-04  4.893E-04  1.435E-05
   1    4   29     1    29    7.3583E-01  5.0349E-04   7.3533E-01  0.000E+00  0.000E+00  0.000E+00  1.32089E+02  6.389E-01  2.577E+00  4.421E-04  4.897E-04  1.378E-05
   1    4   30     1    30    7.3533E-01  5.0332E-04   7.3483E-01  0.000E+00  0.000E+00  0.000E+00  1.31789E+02  6.387E-01  2.577E+00  4.420E-04  4.901E-04  1.319E-05
   1    4   31     1    31    7.3483E-01  5.0316E-04   7.3432E-01  0.000E+00  0.000E+00  0.000E+00  1.31488E+02  6.385E-01  2.576E+00  4.420E-04  4.906E-04  1.257E-05
   1    4   32     1    32    7.3432E-01  5.0299E-04   7.3382E-01  0.000E+00  0.000E+00  0.000E+00  1.31188E+02  6.383E-01  2.576E+00  4.419E-04  4.911E-04  1.191E-05
   1    4   33     1    33    7.3382E-01  5.0282E-04   7.3332E-01  0.000E+00  0.000E+00  0.000E+00  1.30888E+02  6.381E-01  2.576E+00  4.418E-04  4.916E-04  1.120E-05
   1    4   34     1    34    7.3332E-01  5.0265E-04   7.3282E-01  0.000E+00  0.000E+00  0.000E+00  1.30588E+02  6.378E-01  2.576E+00  4.418E-04  4.922E-04  1.043E-05
   1    4   35     1    35    7.3282E-01  5.0248E-04   7.3231E-01  0.000E+00  0.000E+00  0.000E+00  1.30288E+02  6.376E-01  2.575E+00  4.417E-04  4.929E-04  9.600E-06
   1    4   36     1    36    7.3231E-01  5.0232E-04   7.3181E-01  0.000E+00  0.000E+00  0.000E+00  1.29987E+02  6.374E-01  2.575E+00  4.416E-04  4.936E-04  8.686E-06
   1    4   37     1    37    7.3181E-01  5.0215E-04   7.3131E-01  0.000E+00  0.000E+00  0.000E+00  1.29687E+02  6.372E-01  2.575E+00  4.416E-04  4.945E-04  7.679E-06
   1    4   38     1    38    7.3131E-01  5.0198E-04   7.3081E-01  0.000E+00  0.000E+00  0.000E+00  1.29387E+02  6.370E-01  2.575E+00  4.415E-04  4.955E-04  6.477E-06
   1    4   39     1    39    7.3081E-01  5.0181E-04   7.3030E-01  0.000E+00  0.000E+00  0.000E+00  1.29087E+02  6.368E-01  2.574E+00  4.414E-04  4.864E-04  1.538E-05
   1    4   40     1    40    7.3030E-01  5.0164E-04   7.2980E-01  0.000E+00  0.000E+00  0.000E+00  1.28787E+02  6.366E-01  2.574E+00  4.414E-04  4.429E-04  5.877E-05
   1    4   41     1    41    7.2980E-01  5.0147E-04   7.2930E-01  0.000E+00  0.000E+00  0.000E+00  1.28486E+02  6.364E-01  2.574E+00  4.413E-04  4.328E-04  6.869E-05
   1    4   42     1    42    7.2930E-01  5.0131E-04   7.2880E-01  0.000E+00  0.000E+00  0.000E+00  1.28186E+02  6.362E-01  2.574E+00  4.412E-04  4.342E-04  6.707E-05
   1    4   43     1    43    7.2880E-01  5.0114E-04   7.2830E-01  0.000E+00  0.000E+00  0.000E+00  1.27886E+02  6.360E-01  2.573E+00  4.412E-04  4.360E-04  6.516E-05
   1    4   44     1    44    7.2830E-01  5.0097E-04   7.2780E-01  0.000E+00  0.000E+00  0.000E+00  1.27586E+02  6.358E-01  2.573E+00  4.411E-04  4.380E-04  6.301E-05
   1    4   45     1    45    7.2780E-01  5.0080E-04   7.2730E-01  0.000E+00  0.000E+00  0.000E+00  1.27286E+02  6.356E-01  2.573E+00  4.410E-04  4.941E-04  6.745E-06
   1    4   46     1    46    7.2730E-01  5.0064E-04   7.2680E-01  0.000E+00  0.000E+00  0.000E+00  1.26985E+02  6.354E-01  2.573E+00  4.409E-04  4.975E-04  3.105E-06
   1    4   47     1    47    7.2680E-01  5.0047E-04   7.2630E-01  0.000E+00  0.000E+00  0.000E+00  1.26685E+02  6.352E-01  2.572E+00  4.409E-04  5.019E-04 -1.448E-06
   1    4   48     1    48    7.2630E-01  5.0030E-04   7.2580E-01  0.000E+00  0.000E+00  0.000E+00  1.26385E+02  6.349E-01  2.572E+00  4.408E-04  5.635E-04 -6.316E-05
   1    4   49     1    49    7.2580E-01  5.0013E-04   7.2530E-01  0.000E+00  0.000E+00  0.000E+00  1.26085E+02  6.347E-01  2.572E+00  4.407E-04  6.151E-04 -1.149E-04
   1    4   50     1    50    7.2530E-01  4.9996E-04   7.2480E-01  0.000E+00  0.000E+00  0.000E+00  1.25785E+02  6.345E-01  2.572E+00  4.407E-04  6.711E-04 -1.712E-04
   1    4   51     1    51    7.2480E-01  4.9980E-04   7.2430E-01  0.000E+00  0.000E+00  0.000E+00  1.25484E+02  6.343E-01  2.571E+00  4.406E-04  6.572E-04 -1.574E-04
   1    4   52     1    52    7.2430E-01  4.9963E-04   7.2380E-01  0.000E+00  0.000E+00  0.000E+00  1.25184E+02  6.341E-01  2.571E+00  4.405E-04  6.432E-04 -1.436E-04
   1    4   53     1    53    7.2380E-01  4.9946E-04   7.2330E-01  0.000E+00  0.000E+00  0.000E+00  1.24884E+02  6.339E-01  2.571E+00  4.405E-04  6.421E-04 -1.427E-04
   1    4   54     1    54    7.2330E-01  4.9929E-04   7.2280E-01  0.000E+00  0.000E+00  0.000E+00  1.24584E+02  6.337E-01  2.571E+00  4.404E-04  6.540E-04 -1.547E-04
   1    4   55     1    55    7.2280E-01  4.9913E-04   7.2230E-01  0.000E+00  0.000E+00  0.000E+00  1.24284E+02  6.335E-01  2.570E+00  4.403E-04  6.670E-04 -1.678E-04
   1    4   56     1    56    7.2230E-01  4.9896E-04   7.2180E-01  0.000E+00  0.000E+00  0.000E+00  1.23983E+02  6.333E-01  2.570E+00  4.403E-04  6.083E-04 -1.094E-04
   1    4   57     1    57    7.2180E-01  4.9879E-04   7.2130E-01  0.000E+00  0.000E+00  0.000E+00  1.23683E+02  6.331E-01  2.570E+00  4.402E-04  5.547E-04 -5.595E-05
   1    4   58     1    58    7.2130E-01  4.9863E-04   7.2080E-01  0.000E+00  0.000E+00  0.000E+00  1.23383E+02  6.329E-01  2.570E+00  4.401E-04  4.920E-04  6.579E-06
   1    4   59     1    59    7.2080E-01  4.9846E-04   7.2030E-01  0.000E+00  0.000E+00  0.000E+00  1.23083E+02  6.327E-01  2.569E+00  4.401E-04  4.866E-04  1.187E-05
   1    4   60     1    60    7.2030E-01  4.9829E-04   7.1981E-01  0.000E+00  0.000E+00  0.000E+00  1.22782E+02  6.325E-01  2.569E+00  4.400E-04  4.819E-04  1.636E-05
   1    4   61     1    61    7.1981E-01  4.9812E-04   7.1931E-01  0.000E+00  0.000E+00  0.000E+00  1.22482E+02  6.323E-01  2.569E+00  4.399E-04  4.780E-04  2.014E-05
   1    4   62     1    62    7.1931E-01  4.9796E-04   7.1881E-01  0.000E+00  0.000E+00  0.000E+00  1.22182E+02  6.321E-01  2.569E+00  4.399E-04  4.329E-04  6.510E-05
   1    4   63     1    63    7.1881E-01  4.9779E-04   7.1831E-01  0.000E+00  0.000E+00  0.000E+00  1.21882E+02  6.318E-01  2.568E+00  4.398E-04  4.220E-04  7.575E-05
   1    4   64     1    64    7.1831E-01  4.9762E-04   7.1781E-01  0.000E+00  0.000E+00  0.000E+00  1.21582E+02  6.316E-01  2.568E+00  4.397E-04  4.200E-04  7.764E-05
   1    4   65     1    65    7.1781E-01  4.9746E-04   7.1732E-01  0.000E+00  0.000E+00  0.000E+00  1.21281E+02  6.314E-01  2.568E+00  4.397E-04  4.183E-04  7.919E-05
   1    4   66     1    66    7.1732E-01  4.9729E-04   7.1682E-01  0.000E+00  0.000E+00  0.000E+00  1.20981E+02  6.312E-01  2.568E+00  4.396E-04  4.499E-04  4.735E-05
   1    4   67     1    67    7.1682E-01  4.9712E-04   7.1632E-01  0.000E+00  0.000E+00  0.000E+00  1.20681E+02  6.310E-01  2.567E+00  4.395E-04  4.811E-04  1.603E-05
   1    4   68     1    68    7.1632E-01  4.9695E-04   7.1582E-01  0.000E+00  0.000E+00  0.000E+00  1.20381E+02  6.308E-01  2.567E+00  4.395E-04  4.798E-04  1.717E-05
   1    4   69     1    69    7.1582E-01  4.9679E-04   7.1533E-01  0.000E+00  0.000E+00  0.000E+00  1.20081E+02  6.306E-01  2.567E+00  4.394E-04  4.788E-04  1.801E-05
   1    4   70     1    70    7.1533E-01  4.9662E-04   7.1483E-01  0.000E+00  0.000E+00  0.000E+00  1.19780E+02  6.304E-01  2.567E+00  4.393E-04  4.780E-04  1.861E-05
   1    4   71     1    71    7.1483E-01  4.9645E-04   7.1433E-01  0.000E+00  0.000E+00  0.000E+00  1.19480E+02  6.302E-01  2.566E+00  4.393E-04  4.775E-04  1.900E-05
   1    4   72     1    72    7.1433E-01  4.9629E-04   7.1384E-01  0.000E+00  0.000E+00  0.000E+00  1.19180E+02  6.300E-01  2.566E+00  4.392E-04  4.771E-04  1.919E-05
   1    4   73     1    73    7.1384E-01  4.9612E-04   7.1334E-01  0.000E+00  0.000E+00  0.000E+00  1.18880E+02  6.298E-01  2.566E+00  4.391E-04  4.769E-04  1.920E-05
   1    4   74     1    74    7.1334E-01  4.9595E-04   7.1285E-01  0.000E+00  0.000E+00  0.000E+00  1.18580E+02  6.296E-01  2.566E+00  4.391E-04  4.769E-04  1.902E-05
   1    4   75     1    75    7.1285E-01  4.9579E-04   7.1235E-01  0.000E+00  0.000E+00  0.000E+00  1.18279E+02  6.294E-01  2.565E+00  4.390E-04  4.771E-04  1.865E-05
   1    4   76     1    76    7.1235E-01  4.9562E-04   7.1186E-01  0.000E+00  0.000E+00  0.000E+00  1.17979E+02  6.292E-01  2.565E+00  4.389E-04  4.775E-04  1.811E-05
   1    4   77     1    77    7.1186E-01  4.9545E-04   7.1136E-01  0.000E+00  0.000E+00  0.000E+00  1.17679E+02  6.290E-01  2.565E+00  4.389E-04  4.443E-04  5.115E-05
   1    4   78     1    78    7.1136E-01  4.9529E-04   7.1086E-01  0.000E+00  0.000E+00  0.000E+00  1.17379E+02  6.288E-01  2.565E+00  4.388E-04  4.201E-04  7.521E-05
   1    4   79     1    79    7.1086E-01  4.9512E-04   7.1037E-01  0.000E+00  0.000E+00  0.000E+00  1.17079E+02  6.285E-01  2.565E+00  4.387E-04  4.209E-04  7.424E-05
   1    4   80     1    80    7.1037E-01  4.9495E-04   7.0987E-01  0.000E+00  0.000E+00  0.000E+00  1.16778E+02  6.283E-01  2.564E+00  4.387E-04  4.218E-04  7.310E-05
   1    4   81     1    81    7.0987E-01  4.9479E-04   7.0938E-01  0.000E+00  0.000E+00  0.000E+00  1.16478E+02  6.281E-01  2.564E+00  4.386E-04  4.230E-04  7.180E-05
   1    4   82     1    82    7.0938E-01  4.9462E-04   7.0888E-01  0.000E+00  0.000E+00  0.000E+00  1.16178E+02  6.279E-01  2.564E+00  4.385E-04  4.243E-04  7.033E-05
   1    4   83     1    83    7.0888E-01  4.9445E-04   7.0839E-01  0.000E+00  0.000E+00  0.000E+00  1.15878E+02  6.277E-01  2.564E+00  4.385E-04  4.258E-04  6.868E-05
   1    4   84     1    84    7.0839E-01  4.9429E-04   7.0790E-01  0.000E+00  0.000E+00  0.000E+00  1.15578E+02  6.275E-01  2.563E+00  4.384E-04  4.274E-04  6.686E-05
   1    4   85     1    85    7.0790E-01  4.9412E-04   7.0740E-01  0.000E+00  0.000E+00  0.000E+00  1.15277E+02  6.273E-01  2.563E+00  4.383E-04  4.293E-04  6.486E-05
   1    4   86     1    86    7.0740E-01  4.9396E-04   7.0691E-01  0.000E+00  0.000E+00  0.000E+00  1.14977E+02  6.271E-01  2.563E+00  4.383E-04  4.319E-04  6.208E-05
   1    4   87     1    87    7.0691E-01  4.9379E-04   7.0641E-01  0.000E+00  0.000E+00  0.000E+00  1.14677E+02  6.269E-01  2.563E+00  4.382E-04  4.344E-04  5.934E-05
   1    4   88     1    88    7.0641E-01  4.9362E-04   7.0592E-01  0.000E+00  0.000E+00  0.000E+00  1.14377E+02  6.267E-01  2.562E+00  4.381E-04  4.372E-04  5.640E-05
   1    4   89     1    89    7.0592E-01  4.9346E-04   7.0543E-01  0.000E+00  0.000E+00  0.000E+00  1.14076E+02  6.265E-01  2.562E+00  4.381E-04  4.402E-04  5.324E-05
   1    4   90     1    90    7.0543E-01  4.9329E-04   7.0493E-01  0.000E+00  0.000E+00  0.000E+00  1.13776E+02  6.263E-01  2.562E+00  4.380E-04  4.528E-04  4.048E-05
   1    4   91     1    91    7.0493E-01  4.9312E-04   7.0444E-01  0.000E+00  0.000E+00  0.000E+00  1.13476E+02  6.261E-01  2.562E+00  4.379E-04  4.675E-04  2.558E-05
   1    4   92     1    92    7.0444E-01  4.9296E-04   7.0395E-01  0.000E+00  0.000E+00  0.000E+00  1.13176E+02  6.259E-01  2.561E+00  4.378E-04  4.818E-04  1.113E-05
   1    4   93     1    93    7.0395E-01  4.9279E-04   7.0346E-01  0.000E+00  0.000E+00  0.000E+00  1.12876E+02  6.257E-01  2.561E+00  4.378E-04  4.957E-04 -2.892E-06
   1    4   94     1    94    7.0346E-01  4.9263E-04   7.0296E-01  0.000E+00  0.000E+00  0.000E+00  1.12575E+02  6.255E-01  2.561E+00  4.377E-04  4.932E-04 -5.548E-07
   1    4   95     1    95    7.0296E-01  4.9246E-04   7.0247E-01  0.000E+00  0.000E+00  0.000E+00  1.12275E+02  6.252E-01  2.561E+00  4.376E-04  4.956E-04 -3.150E-06
   1    4   96     1    96    7.0247E-01  4.9229E-04   7.0198E-01  0.000E+00  0.000E+00  0.000E+00  1.11975E+02  6.250E-01  2.560E+00  4.376E-04  5.084E-04 -1.606E-05
   1    4   97     1    97    7.0198E-01  4.9213E-04   7.0149E-01  0.000E+00  0.000E+00  0.000E+00  1.11675E+02  6.248E-01  2.560E+00  4.375E-04  5.208E-04 -2.867E-05
   1    4   98     1    98    7.0149E-01  4.9196E-04   7.0099E-01  0.000E+00  0.000E+00  0.000E+00  1.11375E+02  6.246E-01  2.560E+00  4.374E-04  5.268E-04 -3.481E-05
   1    4   99     1    99    7.0099E-01  4.9180E-04   7.0050E-01  0.000E+00  0.000E+00  0.000E+00  1.11074E+02  6.244E-01  2.560E+00  4.374E-04  5.307E-04 -3.889E-05
   1    4  100     1   100    7.0050E-01  4.9163E-04   7.0001E-01  0.000E+00  0.000E+00  0.000E+00  1.10774E+02  6.242E-01  2.559E+00  4.373E-04  5.344E-04 -4.272E-05



1
  VOLUMETRIC BUDGET FOR UNSATURATED ZONE BENEATH STREAMS AT END OF TIME STEP    30 STRESS PERIOD  27
  ------------------------------------------------------------------------------------------------

    CUMULATIVE VOLUMES             L**3    RATES FOR THIS TIME STEP         L**3/T
    ------------------                     ------------------------


          STREAM LOSS =     27546898.0000            STREAM LOSS =        4.9990E-02
    CHANGE IN STORAGE =      1093662.8750      CHANGE IN STORAGE =        3.0057E-03
       RECHARGE TO GW =     26460124.0000         RECHARGE TO GW =        4.6984E-02

             TOTAL IN =     27546898.0000               TOTAL IN =        4.9990E-02

            TOTAL OUT =     27553786.0000              TOTAL OUT =        4.9990E-02

             IN - OUT =        -6888.0000               IN - OUT =        3.7253E-09

  PERCENT DISCREPANCY =           -0.01      PERCENT DISCREPANCY =             0.00



1
  VOLUMETRIC BUDGET FOR ENTIRE MODEL AT END OF TIME STEP   30, STRESS PERIOD  27
  ------------------------------------------------------------------------------

     CUMULATIVE VOLUMES      L**3       RATES FOR THIS TIME STEP      L**3/T
     ------------------                 ------------------------

           IN:                                      IN:
           ---                                      ---
             STORAGE     =    94134928.0000               STORAGE     =           0.7224
       CONSTANT HEAD     =           0.0000         CONSTANT HEAD     =           0.0000
               WELLS     =           0.0000                 WELLS     =           0.0000
     HEAD DEP BOUNDS     =       29302.9727       HEAD DEP BOUNDS     =       1.5431E-02
      STREAM LEAKAGE     =    26460004.0000        STREAM LEAKAGE     =       4.6984E-02

                TOTAL IN =   120624240.0000                  TOTAL IN =           0.7848

          OUT:                                     OUT:
          ----                                     ----
             STORAGE     =     3107309.0000               STORAGE     =           0.0000
       CONSTANT HEAD     =           0.0000         CONSTANT HEAD     =           0.0000
               WELLS     =   101131080.0000                 WELLS     =           0.7848
     HEAD DEP BOUNDS     =    16385952.0000       HEAD DEP BOUNDS     =           0.0000
      STREAM LEAKAGE     =           0.0000        STREAM LEAKAGE     =           0.0000

               TOTAL OUT =   120624344.0000                 TOTAL OUT =           0.7848

                IN - OUT =        -104.0000                  IN - OUT =       5.9605E-08

     PERCENT DISCREPANCY =          -0.00         PERCENT DISCREPANCY =           0.00






         TIME SUMMARY AT END OF TIME STEP   30 IN STRESS PERIOD   27
                    SECONDS     MINUTES      HOURS       DAYS        YEARS
                    -----------------------------------------------------------
   TIME STEP LENGTH 2.49961E+05  4166.0      69.434      2.8931     7.92080E-03
 STRESS PERIOD TIME 2.59200E+06  43200.      720.00      30.000     8.21355E-02
         TOTAL TIME 6.99840E+07 1.16640E+06  19440.      810.00      2.2177    
1
1
                            STRESS PERIOD NO.   28, LENGTH =   2592000.    
                            -----------------------------------------------

                              NUMBER OF TIME STEPS =    30

                               MULTIPLIER FOR DELT =     1.100

                            INITIAL TIME STEP SIZE =   15757.40    

 REUSING NON-PARAMETER WELLS FROM LAST STRESS PERIOD

      1 WELL 

 REUSING NON-PARAMETER GHB CELLS FROM LAST STRESS PERIOD

      7 GHB CELLS



 CLASSIFICATION & COUNT OF STREAM SEGMENTS BASED ON SOURCE OF INFLOW:

                HEADWATER     DIVERSION     RECEIVES TRIBUTARY FLOW
                ---------     ---------     -----------------------
                     1              0               0



                    INPUT DATA FOR EACH STREAM SEGMENT
 ---------------------------------------------------------------------------------------------

 SEGMENT    SEG.     INFLOW   OVERLAND   STREAM    STREAM   ICALC  OUTFLOW  DIVERSION PRIORITY
    NO.    LENGTH     RATE     RUNOFF      ET       PPT.    METH.  TO SEG.  FROM SEG.    NO.

      1  2.000E+04 1.730E+00 0.000E+00 0.000E+00 0.000E+00    2        0        0        0


         STREAMBED PROPERTIES AND STREAM DIMENSIONS

 SEGMENT     BED HYD. COND.      BED THICKNESS     ELEV.-TOP OF BED     WIDTH OF STREAM     DEPTH OF STREAM    STREAM ROUGHNESS
    No.     UPPER     LOWER     UPPER     LOWER     UPPER     LOWER     UPPER     LOWER     UPPER     LOWER   CHANNEL      BANK

     1  3.500E-07 3.500E-07                                                                                 3.000E-02 4.000E-02

  EIGHT POINT CROSS-SECTION DATA FOR SEGMENTS WITH ICALC = 2
    X VALUES X VALUES START FROM LEFT SIDE LOOKING DOWNSTREAM

     SEGMENT NO.        X1        X2        X3        X4        X5        X6        X7        X8
            1      0.000E+00 2.000E+00 4.000E+00 6.000E+00 8.000E+00 1.000E+01 1.200E+01 1.400E+01

    Z VALUES ARE RELATIVE TO STREAMBED ELEVATION

     SEGMENT NO.          Z1        Z2        Z3        Z4        Z5        Z6        Z7        Z8
            1      6.000E+00 4.500E+00 3.500E+00 0.000E+00 3.000E-01 3.500E+00 4.500E+00 6.000E+00



 
 SOLVING FOR HEAD 
                                                   Max.-Head-Change                         Max.-Flux-Residual
  Residual-Control   Outer-Iter.   Inner-Iter.     Column Row Layer    Maximum-Head-Change  Column Row Layer    Maximum-Flux-Residual          L2-NORM 
          0                 1           2            50    3     1       0.2629141715E+00      50    3    1         0.9973852105E-01      0.1307914006E+00
          0                 2           2            50    3     1      -0.2698344149E-01      50    3    1        -0.1049455867E-01      0.1376011038E-01
          0                 3           2            50    3     1       0.2391872242E-02      50    3    1         0.9397167260E-03      0.1232896505E-02
          0                 4           2            50    3     1      -0.1898810775E-03      50    3    1        -0.7530922967E-04      0.9888572614E-04
          0                 5           1            50    3     1       0.1322662053E-04      50    3    1         0.5293927406E-05      0.6955960378E-05
          0                 6           1            50    3     1      -0.7942251274E-06      50    3    1        -0.3207920480E-06      0.4217147816E-06

    ------------------------------------------------
       NWT REQUIRED            6 OUTER ITERATIONS 
       AND A TOTAL OF         10 INNER ITERATIONS.
    ------------------------------------------------

 NO OUTPUT CONTROL FOR STRESS PERIOD   28   TIME STEP    1
 
 WELLS WITH REDUCED PUMPING FOR STRESS PERIOD    28 TIME STEP     1
   LAY   ROW   COL         APPL.Q          ACT.Q        GW-HEAD       CELL-BOT
     1     3    50  -0.114122E+01  -0.370455E+00   0.426516E+01   0.000000E+00
     1     5    55  -0.114122E+01  -0.295071E+00   0.369415E+01   0.000000E+00
 
 
 SOLVING FOR HEAD 
                                                   Max.-Head-Change                         Max.-Flux-Residual
  Residual-Control   Outer-Iter.   Inner-Iter.     Column Row Layer    Maximum-Head-Change  Column Row Layer    Maximum-Flux-Residual          L2-NORM 
          0                 1           2            50    3     1       0.1537599411E+00      50    3    1         0.5474435815E-01      0.7663691134E-01
          0                 2           2            50    3     1      -0.1535291876E-01      50    3    1        -0.5637070990E-02      0.7836790746E-02
          0                 3           2            50    3     1       0.1360080400E-02      50    3    1         0.5058889764E-03      0.7047747223E-03
          0                 4           2            50    3     1      -0.1078910040E-03      50    3    1        -0.4053299490E-04      0.5661709108E-04
          0                 5           1            50    3     1       0.7515120669E-05      50    3    1         0.2849359504E-05      0.3989341723E-05
          0                 6           1            50    3     1      -0.4512624596E-06      50    3    1        -0.1726596874E-06      0.2421660426E-06

    ------------------------------------------------
       NWT REQUIRED            6 OUTER ITERATIONS 
       AND A TOTAL OF         10 INNER ITERATIONS.
    ------------------------------------------------

 NO OUTPUT CONTROL FOR STRESS PERIOD   28   TIME STEP    2
 
 WELLS WITH REDUCED PUMPING FOR STRESS PERIOD    28 TIME STEP     2
   LAY   ROW   COL         APPL.Q          ACT.Q        GW-HEAD       CELL-BOT
     1     3    50  -0.114019E+01  -0.390357E+00   0.440482E+01   0.000000E+00
     1     5    55  -0.114019E+01  -0.311037E+00   0.381185E+01   0.000000E+00
 
 
 SOLVING FOR HEAD 
                                                   Max.-Head-Change                         Max.-Flux-Residual
  Residual-Control   Outer-Iter.   Inner-Iter.     Column Row Layer    Maximum-Head-Change  Column Row Layer    Maximum-Flux-Residual          L2-NORM 
          0                 1           2            50    3     1       0.8818063907E-01      50    3    1         0.2912286885E-01      0.4827416656E-01
          0                 2           2            50    3     1      -0.8611324552E-02      50    3    1        -0.2963603530E-02      0.4808661686E-02
          0                 3           2            50    3     1       0.7605051181E-03      50    3    1         0.2662776464E-03      0.4341041842E-03
          0                 4           1            50    3     1      -0.6026032225E-04      50    3    1        -0.2133225292E-04      0.3503306728E-04
          0                 5           1            50    3     1       0.4196789672E-05      50    3    1         0.1499598348E-05      0.2479656691E-05
          0                 6           1            50    3     1      -0.2520030304E-06      50    3    1        -0.9086879640E-07      0.1510563567E-06

    ------------------------------------------------
       NWT REQUIRED            6 OUTER ITERATIONS 
       AND A TOTAL OF          9 INNER ITERATIONS.
    ------------------------------------------------

 NO OUTPUT CONTROL FOR STRESS PERIOD   28   TIME STEP    3
 
 WELLS WITH REDUCED PUMPING FOR STRESS PERIOD    28 TIME STEP     3
   LAY   ROW   COL         APPL.Q          ACT.Q        GW-HEAD       CELL-BOT
     1     3    50  -0.113985E+01  -0.401975E+00   0.448510E+01   0.000000E+00
     1     5    55  -0.113985E+01  -0.320577E+00   0.388088E+01   0.000000E+00
 
 
 SOLVING FOR HEAD 
                                                   Max.-Head-Change                         Max.-Flux-Residual
  Residual-Control   Outer-Iter.   Inner-Iter.     Column Row Layer    Maximum-Head-Change  Column Row Layer    Maximum-Flux-Residual          L2-NORM 
          0                 1           2            50    3     1       0.4990215548E-01      50    3    1         0.1504948744E-01      0.3563258105E-01
          0                 2           2            50    3     1      -0.4767904209E-02      50    3    1        -0.1520813833E-02      0.3478130767E-02
          0                 3           2            50    3     1       0.4187259369E-03      50    3    1         0.1367363679E-03      0.3152982306E-03
          0                 4           1            50    3     1      -0.3311779509E-04      50    3    1        -0.1095360308E-04      0.2563511145E-04
          0                 5           1            50    3     1       0.2305695361E-05      50    3    1         0.7700032170E-06      0.1827929454E-05
          0                 6           1            50    3     1      -0.1384450327E-06      50    3    1        -0.4665805992E-07      0.1120133516E-06

    ------------------------------------------------
       NWT REQUIRED            6 OUTER ITERATIONS 
       AND A TOTAL OF          9 INNER ITERATIONS.
    ------------------------------------------------

 NO OUTPUT CONTROL FOR STRESS PERIOD   28   TIME STEP    4
 
 WELLS WITH REDUCED PUMPING FOR STRESS PERIOD    28 TIME STEP     4
   LAY   ROW   COL         APPL.Q          ACT.Q        GW-HEAD       CELL-BOT
     1     3    50  -0.114016E+01  -0.408769E+00   0.453062E+01   0.000000E+00
     1     5    55  -0.114016E+01  -0.326234E+00   0.392055E+01   0.000000E+00
 
 
 SOLVING FOR HEAD 
                                                   Max.-Head-Change                         Max.-Flux-Residual
  Residual-Control   Outer-Iter.   Inner-Iter.     Column Row Layer    Maximum-Head-Change  Column Row Layer    Maximum-Flux-Residual          L2-NORM 
          0                 1           2            50    3     1       0.2900239779E-01      50    3    1         0.7842199467E-02      0.3108609037E-01
          0                 2           2            50    3     1      -0.2710264244E-02      50    3    1        -0.7891067549E-03      0.3012636107E-02
          0                 3           2            50    3     1       0.2361509412E-03      50    3    1         0.7097698031E-04      0.2738908985E-03
          0                 4           1            50    3     1      -0.1862619540E-04      50    3    1        -0.5685564236E-05      0.2240579241E-04
          0                 5           1            50    3     1       0.1295964106E-05      50    3    1         0.3996719916E-06      0.1607921094E-05
          0                 6           1            50    3     1      -0.7781011849E-07      50    3    1        -0.2421756676E-07      0.9905873905E-07

    ------------------------------------------------
       NWT REQUIRED            6 OUTER ITERATIONS 
       AND A TOTAL OF          9 INNER ITERATIONS.
    ------------------------------------------------

 NO OUTPUT CONTROL FOR STRESS PERIOD   28   TIME STEP    5
 
 WELLS WITH REDUCED PUMPING FOR STRESS PERIOD    28 TIME STEP     5
   LAY   ROW   COL         APPL.Q          ACT.Q        GW-HEAD       CELL-BOT
     1     3    50  -0.114008E+01  -0.412645E+00   0.455713E+01   0.000000E+00
     1     5    55  -0.114008E+01  -0.329473E+00   0.394369E+01   0.000000E+00
 
 
 SOLVING FOR HEAD 
                                                   Max.-Head-Change                         Max.-Flux-Residual
  Residual-Control   Outer-Iter.   Inner-Iter.     Column Row Layer    Maximum-Head-Change  Column Row Layer    Maximum-Flux-Residual          L2-NORM 
          0                 1           2            50    2     1       0.2111644348E-01      50    3    1         0.4188984387E-02      0.2951678984E-01
          0                 2           2            50    2     1      -0.2081053433E-02      50    3    1        -0.4203235450E-03      0.2860406842E-02
          0                 3           2            50    2     1       0.1851263323E-03      50    3    1         0.3781621286E-04      0.2604796034E-03
          0                 4           1            50    2     1      -0.1468317607E-04      50    3    1        -0.3029167793E-05      0.2139029116E-04
          0                 5           1            50    2     1       0.1022673241E-05      50    3    1         0.2129333314E-06      0.1541731197E-05
          0                 6           1            50    2     1      -0.6140700879E-07      50    3    1        -0.1290206431E-07      0.9535399369E-07

    ------------------------------------------------
       NWT REQUIRED            6 OUTER ITERATIONS 
       AND A TOTAL OF          9 INNER ITERATIONS.
    ------------------------------------------------

 NO OUTPUT CONTROL FOR STRESS PERIOD   28   TIME STEP    6
 
 WELLS WITH REDUCED PUMPING FOR STRESS PERIOD    28 TIME STEP     6
   LAY   ROW   COL         APPL.Q          ACT.Q        GW-HEAD       CELL-BOT
     1     3    50  -0.113993E+01  -0.414968E+00   0.457324E+01   0.000000E+00
     1     5    55  -0.113993E+01  -0.331394E+00   0.395758E+01   0.000000E+00
 
 
 SOLVING FOR HEAD 
                                                   Max.-Head-Change                         Max.-Flux-Residual
  Residual-Control   Outer-Iter.   Inner-Iter.     Column Row Layer    Maximum-Head-Change  Column Row Layer    Maximum-Flux-Residual          L2-NORM 
          0                 1           2            50    2     1       0.1824328503E-01      50    2    1         0.2724668576E-02      0.2890616020E-01
          0                 2           2            50    2     1      -0.1798889722E-02      50    2    1        -0.2728635748E-03      0.2803964434E-02
          0                 3           2            50    2     1       0.1600206423E-03      50    2    1         0.2455356410E-04      0.2556223114E-03
          0                 4           1            50    2     1      -0.1269100959E-04      50    2    1        -0.1966774893E-05      0.2104824621E-04
          0                 5           1            50    2     1       0.8838765126E-06      50    2    1         0.1382621509E-06      0.1522182529E-05

    ------------------------------------------------
       NWT REQUIRED            5 OUTER ITERATIONS 
       AND A TOTAL OF          8 INNER ITERATIONS.
    ------------------------------------------------

 NO OUTPUT CONTROL FOR STRESS PERIOD   28   TIME STEP    7
 
 WELLS WITH REDUCED PUMPING FOR STRESS PERIOD    28 TIME STEP     7
   LAY   ROW   COL         APPL.Q          ACT.Q        GW-HEAD       CELL-BOT
     1     3    50  -0.113987E+01  -0.416459E+00   0.458350E+01   0.000000E+00
     1     5    55  -0.113987E+01  -0.332596E+00   0.396622E+01   0.000000E+00
 
 
 SOLVING FOR HEAD 
                                                   Max.-Head-Change                         Max.-Flux-Residual
  Residual-Control   Outer-Iter.   Inner-Iter.     Column Row Layer    Maximum-Head-Change  Column Row Layer    Maximum-Flux-Residual          L2-NORM 
          0                 1           2            50    2     1       0.1556248335E-01      50    2    1         0.2139828636E-02      0.2861791684E-01
          0                 2           2            50    2     1      -0.1535082084E-02      50    2    1        -0.2143149643E-03      0.2777664028E-02
          0                 3           2            50    2     1       0.1365515195E-03      50    2    1         0.1928492186E-04      0.2534139767E-03
          0                 4           1            50    2     1      -0.1082885343E-04      50    2    1        -0.1544750421E-05      0.2091298530E-04
          0                 5           1            50    2     1       0.7541392782E-06      50    2    1         0.1085942791E-06      0.1516997741E-05

    ------------------------------------------------
       NWT REQUIRED            5 OUTER ITERATIONS 
       AND A TOTAL OF          8 INNER ITERATIONS.
    ------------------------------------------------

 NO OUTPUT CONTROL FOR STRESS PERIOD   28   TIME STEP    8
 
 WELLS WITH REDUCED PUMPING FOR STRESS PERIOD    28 TIME STEP     8
   LAY   ROW   COL         APPL.Q          ACT.Q        GW-HEAD       CELL-BOT
     1     3    50  -0.113990E+01  -0.417481E+00   0.459035E+01   0.000000E+00
     1     5    55  -0.113990E+01  -0.333391E+00   0.397177E+01   0.000000E+00
 
 
 SOLVING FOR HEAD 
                                                   Max.-Head-Change                         Max.-Flux-Residual
  Residual-Control   Outer-Iter.   Inner-Iter.     Column Row Layer    Maximum-Head-Change  Column Row Layer    Maximum-Flux-Residual          L2-NORM 
          0                 1           2             2    1     1      -0.1418451622E-01      50    2    1         0.1659384580E-02      0.2845164303E-01
          0                 2           2             2    1     1       0.1361882051E-02      50    2    1        -0.1661814915E-03      0.2762339258E-02
          0                 3           2             3    1     1      -0.1180160238E-03      50    2    1         0.1495384848E-04      0.2521994278E-03
          0                 4           1            50    2     1      -0.9178388650E-05      50    2    1        -0.1197823689E-05      0.2085629700E-04
          0                 5           1            50    2     1       0.6391540609E-06      50    2    1         0.8420571548E-07      0.1517282950E-05

    ------------------------------------------------
       NWT REQUIRED            5 OUTER ITERATIONS 
       AND A TOTAL OF          8 INNER ITERATIONS.
    ------------------------------------------------

 NO OUTPUT CONTROL FOR STRESS PERIOD   28   TIME STEP    9
 
 WELLS WITH REDUCED PUMPING FOR STRESS PERIOD    28 TIME STEP     9
   LAY   ROW   COL         APPL.Q          ACT.Q        GW-HEAD       CELL-BOT
     1     3    50  -0.113995E+01  -0.418210E+00   0.459515E+01   0.000000E+00
     1     5    55  -0.113995E+01  -0.333932E+00   0.397547E+01   0.000000E+00
 
 
 SOLVING FOR HEAD 
                                                   Max.-Head-Change                         Max.-Flux-Residual
  Residual-Control   Outer-Iter.   Inner-Iter.     Column Row Layer    Maximum-Head-Change  Column Row Layer    Maximum-Flux-Residual          L2-NORM 
          0                 1           2             3    1     1      -0.1559241646E-01       2    1    1        -0.1378319050E-02      0.2833968723E-01
          0                 2           2             3    1     1       0.1493740746E-02       2    1    1         0.1378310661E-03      0.2751894399E-02
          0                 3           2             4    1     1      -0.1291304382E-03       2    1    1        -0.1240488021E-04      0.2514289185E-03
          0                 4           1             4    1     1       0.9963746723E-05       2    1    1         0.9936300316E-06      0.2083581302E-04
          0                 5           1             4    1     1      -0.6767034182E-06      29    4    1         0.8660265038E-07      0.1520163415E-05

    ------------------------------------------------
       NWT REQUIRED            5 OUTER ITERATIONS 
       AND A TOTAL OF          8 INNER ITERATIONS.
    ------------------------------------------------

 NO OUTPUT CONTROL FOR STRESS PERIOD   28   TIME STEP   10
 
 WELLS WITH REDUCED PUMPING FOR STRESS PERIOD    28 TIME STEP    10
   LAY   ROW   COL         APPL.Q          ACT.Q        GW-HEAD       CELL-BOT
     1     3    50  -0.113990E+01  -0.418728E+00   0.459877E+01   0.000000E+00
     1     5    55  -0.113990E+01  -0.334291E+00   0.397811E+01   0.000000E+00
 
 
 SOLVING FOR HEAD 
                                                   Max.-Head-Change                         Max.-Flux-Residual
  Residual-Control   Outer-Iter.   Inner-Iter.     Column Row Layer    Maximum-Head-Change  Column Row Layer    Maximum-Flux-Residual          L2-NORM 
          0                 1           2             3    1     1      -0.1714272269E-01       3    1    1        -0.1377656511E-02      0.2825283815E-01
          0                 2           2             4    1     1       0.1638619220E-02       3    1    1         0.1377647383E-03      0.2743531217E-02
          0                 3           2             4    1     1      -0.1413121978E-03       3    1    1        -0.1239892405E-04      0.2508404880E-03
          0                 4           1             5    1     1       0.1087491107E-04       3    7    1         0.9931527463E-06      0.2083019421E-04
          0                 5           1             4    1     1      -0.7364661858E-06      29    4    1         0.8954346065E-07      0.1524164144E-05

    ------------------------------------------------
       NWT REQUIRED            5 OUTER ITERATIONS 
       AND A TOTAL OF          8 INNER ITERATIONS.
    ------------------------------------------------

 NO OUTPUT CONTROL FOR STRESS PERIOD   28   TIME STEP   11
 
 WELLS WITH REDUCED PUMPING FOR STRESS PERIOD    28 TIME STEP    11
   LAY   ROW   COL         APPL.Q          ACT.Q        GW-HEAD       CELL-BOT
     1     3    50  -0.114004E+01  -0.419151E+00   0.460131E+01   0.000000E+00
     1     5    55  -0.114004E+01  -0.334565E+00   0.397977E+01   0.000000E+00
 
 
 SOLVING FOR HEAD 
                                                   Max.-Head-Change                         Max.-Flux-Residual
  Residual-Control   Outer-Iter.   Inner-Iter.     Column Row Layer    Maximum-Head-Change  Column Row Layer    Maximum-Flux-Residual          L2-NORM 
          0                 1           2             3    1     1      -0.1884822278E-01       3    1    1        -0.1377208254E-02      0.2818241554E-01
          0                 2           2             4    1     1       0.1797684084E-02       3    1    1         0.1377197854E-03      0.2736680302E-02
          0                 3           2             4    1     1      -0.1546475358E-03       3    1    1        -0.1239489379E-04      0.2503887408E-03
          0                 4           1             5    1     1       0.1186910650E-04      29    4    1        -0.9946183006E-06      0.2083530426E-04
          0                 5           1             4    1     1      -0.8013460100E-06      29    4    1         0.9239023058E-07      0.1528902527E-05

    ------------------------------------------------
       NWT REQUIRED            5 OUTER ITERATIONS 
       AND A TOTAL OF          8 INNER ITERATIONS.
    ------------------------------------------------

 NO OUTPUT CONTROL FOR STRESS PERIOD   28   TIME STEP   12
 
 WELLS WITH REDUCED PUMPING FOR STRESS PERIOD    28 TIME STEP    12
   LAY   ROW   COL         APPL.Q          ACT.Q        GW-HEAD       CELL-BOT
     1     3    50  -0.114006E+01  -0.419443E+00   0.460323E+01   0.000000E+00
     1     5    55  -0.114006E+01  -0.334728E+00   0.398087E+01   0.000000E+00
 
 
 SOLVING FOR HEAD 
                                                   Max.-Head-Change                         Max.-Flux-Residual
  Residual-Control   Outer-Iter.   Inner-Iter.     Column Row Layer    Maximum-Head-Change  Column Row Layer    Maximum-Flux-Residual          L2-NORM 
          0                 1           2             3    1     1      -0.2072373532E-01       3    1    1        -0.1376834080E-02      0.2812050517E-01
          0                 2           2             4    1     1       0.1972249171E-02       3    1    1         0.1376822129E-03      0.2730636475E-02
          0                 3           2             4    1     1      -0.1692455390E-03       3    1    1        -0.1239152990E-04      0.2499707343E-03
          0                 4           1             5    1     1       0.1295370897E-04      29    4    1        -0.1016992018E-05      0.2084011237E-04
          0                 5           1             4    1     1      -0.8717697441E-06      29    4    1         0.9513444788E-07      0.1533494883E-05

    ------------------------------------------------
       NWT REQUIRED            5 OUTER ITERATIONS 
       AND A TOTAL OF          8 INNER ITERATIONS.
    ------------------------------------------------

 NO OUTPUT CONTROL FOR STRESS PERIOD   28   TIME STEP   13
 
 WELLS WITH REDUCED PUMPING FOR STRESS PERIOD    28 TIME STEP    13
   LAY   ROW   COL         APPL.Q          ACT.Q        GW-HEAD       CELL-BOT
     1     3    50  -0.114006E+01  -0.419652E+00   0.460465E+01   0.000000E+00
     1     5    55  -0.114006E+01  -0.334818E+00   0.398151E+01   0.000000E+00
 
 
 SOLVING FOR HEAD 
                                                   Max.-Head-Change                         Max.-Flux-Residual
  Residual-Control   Outer-Iter.   Inner-Iter.     Column Row Layer    Maximum-Head-Change  Column Row Layer    Maximum-Flux-Residual          L2-NORM 
          0                 1           2             3    1     1      -0.2278580365E-01       3    1    1        -0.1376478205E-02      0.2806542352E-01
          0                 2           2             4    1     1       0.2163825720E-02       3    1    1         0.1376464446E-03      0.2725038823E-02
          0                 3           2             4    1     1      -0.1852283296E-03       3    1    1        -0.1238833071E-04      0.2495959781E-03
          0                 4           1             5    1     1       0.1413731376E-04      29    4    1        -0.1038310682E-05      0.2084752149E-04
          0                 5           1             4    1     1      -0.9482076340E-06      29    4    1         0.9776591448E-07      0.1538097170E-05

    ------------------------------------------------
       NWT REQUIRED            5 OUTER ITERATIONS 
       AND A TOTAL OF          8 INNER ITERATIONS.
    ------------------------------------------------

 NO OUTPUT CONTROL FOR STRESS PERIOD   28   TIME STEP   14
 
 WELLS WITH REDUCED PUMPING FOR STRESS PERIOD    28 TIME STEP    14
   LAY   ROW   COL         APPL.Q          ACT.Q        GW-HEAD       CELL-BOT
     1     3    50  -0.114002E+01  -0.419787E+00   0.460564E+01   0.000000E+00
     1     5    55  -0.114002E+01  -0.334842E+00   0.398175E+01   0.000000E+00
 
 
 SOLVING FOR HEAD 
                                                   Max.-Head-Change                         Max.-Flux-Residual
  Residual-Control   Outer-Iter.   Inner-Iter.     Column Row Layer    Maximum-Head-Change  Column Row Layer    Maximum-Flux-Residual          L2-NORM 
          0                 1           2             3    1     1      -0.2505273395E-01       3    1    1        -0.1376113004E-02      0.2801254210E-01
          0                 2           2             3    1     1       0.2374113663E-02       3    1    1         0.1376097181E-03      0.2719960457E-02
          0                 3           2             4    1     1      -0.2027314018E-03       3    1    1        -0.1238504777E-04      0.2492802328E-03
          0                 4           1             4    1     1       0.1542953647E-04      29    4    1        -0.1058526642E-05      0.2086088132E-04
          0                 5           1             4    1     1      -0.1031164576E-05      29    4    1         0.1002716932E-06      0.1543066556E-05
          0                 6           1            70    1     1       0.5957489179E-07      29    4    1        -0.7305230199E-08      0.9821824857E-07

    ------------------------------------------------
       NWT REQUIRED            6 OUTER ITERATIONS 
       AND A TOTAL OF          9 INNER ITERATIONS.
    ------------------------------------------------

 NO OUTPUT CONTROL FOR STRESS PERIOD   28   TIME STEP   15
 
 WELLS WITH REDUCED PUMPING FOR STRESS PERIOD    28 TIME STEP    15
   LAY   ROW   COL         APPL.Q          ACT.Q        GW-HEAD       CELL-BOT
     1     3    50  -0.114002E+01  -0.419864E+00   0.460616E+01   0.000000E+00
     1     5    55  -0.114002E+01  -0.334812E+00   0.398154E+01   0.000000E+00
 
 
 SOLVING FOR HEAD 
                                                   Max.-Head-Change                         Max.-Flux-Residual
  Residual-Control   Outer-Iter.   Inner-Iter.     Column Row Layer    Maximum-Head-Change  Column Row Layer    Maximum-Flux-Residual          L2-NORM 
          0                 1           2             2    1     1      -0.2754516595E-01       2    7    1        -0.1375727489E-02      0.2796347854E-01
          0                 2           2             3    1     1       0.2604937138E-02       2    1    1         0.1375709225E-03      0.2714869003E-02
          0                 3           2             4    1     1      -0.2219044676E-03       2    1    1        -0.1238157826E-04      0.2489178920E-03
          0                 4           1             4    1     1       0.1684109414E-04      29    4    1        -0.1077239876E-05      0.2086636519E-04
          0                 5           1             4    1     1      -0.1121172067E-05      29    4    1         0.1026063874E-06      0.1547056428E-05
          0                 6           1             1    1     1       0.6444572115E-07      29    4    1        -0.7517462208E-08      0.9876017807E-07

    ------------------------------------------------
       NWT REQUIRED            6 OUTER ITERATIONS 
       AND A TOTAL OF          9 INNER ITERATIONS.
    ------------------------------------------------

 NO OUTPUT CONTROL FOR STRESS PERIOD   28   TIME STEP   16
 
 WELLS WITH REDUCED PUMPING FOR STRESS PERIOD    28 TIME STEP    16
   LAY   ROW   COL         APPL.Q          ACT.Q        GW-HEAD       CELL-BOT
     1     3    50  -0.114002E+01  -0.419877E+00   0.460625E+01   0.000000E+00
     1     5    55  -0.114002E+01  -0.334725E+00   0.398093E+01   0.000000E+00
 
 
 SOLVING FOR HEAD 
                                                   Max.-Head-Change                         Max.-Flux-Residual
  Residual-Control   Outer-Iter.   Inner-Iter.     Column Row Layer    Maximum-Head-Change  Column Row Layer    Maximum-Flux-Residual          L2-NORM 
          0                 1           2             1    1     1      -0.3028506503E-01       2    7    1        -0.1375330509E-02      0.2791437062E-01
          0                 2           2             2    1     1       0.2858328690E-02       2    1    1         0.1375309373E-03      0.2710130706E-02
          0                 3           2             4    1     1      -0.2429122238E-03       2    1    1        -0.1237800448E-04      0.2485899601E-03
          0                 4           1             4    1     1       0.1838345812E-04      30    4    1        -0.1076450843E-05      0.2087312202E-04
          0                 5           1             4    1     1      -0.1218766927E-05      30    4    1         0.1031530346E-06      0.1550762443E-05
          0                 6           1             1    1     1       0.6973762615E-07      30    4    1        -0.7599727070E-08      0.9926555995E-07

    ------------------------------------------------
       NWT REQUIRED            6 OUTER ITERATIONS 
       AND A TOTAL OF          9 INNER ITERATIONS.
    ------------------------------------------------

 NO OUTPUT CONTROL FOR STRESS PERIOD   28   TIME STEP   17
 
 WELLS WITH REDUCED PUMPING FOR STRESS PERIOD    28 TIME STEP    17
   LAY   ROW   COL         APPL.Q          ACT.Q        GW-HEAD       CELL-BOT
     1     3    50  -0.114005E+01  -0.419831E+00   0.460588E+01   0.000000E+00
     1     5    55  -0.114005E+01  -0.334584E+00   0.397988E+01   0.000000E+00
 
 
 SOLVING FOR HEAD 
                                                   Max.-Head-Change                         Max.-Flux-Residual
  Residual-Control   Outer-Iter.   Inner-Iter.     Column Row Layer    Maximum-Head-Change  Column Row Layer    Maximum-Flux-Residual          L2-NORM 
          0                 1           2             1    1     1      -0.3329654866E-01       1    7    1        -0.1374903826E-02      0.2786316395E-01
          0                 2           2             1    1     1       0.3136536952E-02       1    7    1         0.1374880213E-03      0.2705168234E-02
          0                 3           2             3    1     1      -0.2659383630E-03       1    7    1        -0.1237417984E-04      0.2482585371E-03
          0                 4           1             4    1     1       0.2006936091E-04      30    4    1        -0.1096874723E-05      0.2087917998E-04
          0                 5           1             4    1     1      -0.1324475530E-05      30    4    1         0.1058880521E-06      0.1553945261E-05
          0                 6           1             1    1     1       0.7540838422E-07      30    4    1        -0.7857776652E-08      0.9970691402E-07

    ------------------------------------------------
       NWT REQUIRED            6 OUTER ITERATIONS 
       AND A TOTAL OF          9 INNER ITERATIONS.
    ------------------------------------------------

 NO OUTPUT CONTROL FOR STRESS PERIOD   28   TIME STEP   18
 
 WELLS WITH REDUCED PUMPING FOR STRESS PERIOD    28 TIME STEP    18
   LAY   ROW   COL         APPL.Q          ACT.Q        GW-HEAD       CELL-BOT
     1     3    50  -0.114004E+01  -0.419716E+00   0.460513E+01   0.000000E+00
     1     5    55  -0.114004E+01  -0.334378E+00   0.397845E+01   0.000000E+00
 
 
 SOLVING FOR HEAD 
                                                   Max.-Head-Change                         Max.-Flux-Residual
  Residual-Control   Outer-Iter.   Inner-Iter.     Column Row Layer    Maximum-Head-Change  Column Row Layer    Maximum-Flux-Residual          L2-NORM 
          0                 1           2             1    1     1      -0.3660625315E-01       1    7    1        -0.1374427187E-02      0.2780900661E-01
          0                 2           2             1    1     1       0.3441991205E-02       1    7    1         0.1374400276E-03      0.2699997483E-02
          0                 3           2             3    1     1      -0.2911811258E-03       1    7    1        -0.1236989554E-04      0.2479098706E-03
          0                 4           1             4    1     1       0.2191273079E-04      30    4    1        -0.1109228696E-05      0.2088433192E-04
          0                 5           1             4    1     1      -0.1438779514E-05      30    4    1         0.1076560068E-06      0.1556602907E-05
          0                 6           1             1    1     1       0.8146250588E-07      30    4    1        -0.8029793719E-08      0.1000838570E-06

    ------------------------------------------------
       NWT REQUIRED            6 OUTER ITERATIONS 
       AND A TOTAL OF          9 INNER ITERATIONS.
    ------------------------------------------------

 NO OUTPUT CONTROL FOR STRESS PERIOD   28   TIME STEP   19
 
 WELLS WITH REDUCED PUMPING FOR STRESS PERIOD    28 TIME STEP    19
   LAY   ROW   COL         APPL.Q          ACT.Q        GW-HEAD       CELL-BOT
     1     3    50  -0.113998E+01  -0.419524E+00   0.460398E+01   0.000000E+00
     1     5    55  -0.113998E+01  -0.334101E+00   0.397663E+01   0.000000E+00
 
 
 SOLVING FOR HEAD 
                                                   Max.-Head-Change                         Max.-Flux-Residual
  Residual-Control   Outer-Iter.   Inner-Iter.     Column Row Layer    Maximum-Head-Change  Column Row Layer    Maximum-Flux-Residual          L2-NORM 
          0                 1           2             1    1     1      -0.4024345357E-01       1    7    1        -0.1373894988E-02      0.2775254583E-01
          0                 2           2             1    1     1       0.3777349423E-02       1    7    1         0.1373864401E-03      0.2694579741E-02
          0                 3           2             2    1     1      -0.3188593718E-03       1    7    1        -0.1236511174E-04      0.2475107578E-03
          0                 4           1             4    1     1       0.2392876827E-04      30    4    1        -0.1168277786E-05      0.2088154047E-04
          0                 5           1             1    1     1      -0.1562158426E-05      30    4    1         0.1128022369E-06      0.1557771218E-05
          0                 6           1             1    1     1       0.8789047722E-07      30    4    1        -0.8399277718E-08      0.1003120681E-06

    ------------------------------------------------
       NWT REQUIRED            6 OUTER ITERATIONS 
       AND A TOTAL OF          9 INNER ITERATIONS.
    ------------------------------------------------

 NO OUTPUT CONTROL FOR STRESS PERIOD   28   TIME STEP   20
 
 WELLS WITH REDUCED PUMPING FOR STRESS PERIOD    28 TIME STEP    20
   LAY   ROW   COL         APPL.Q          ACT.Q        GW-HEAD       CELL-BOT
     1     3    50  -0.113997E+01  -0.419277E+00   0.460234E+01   0.000000E+00
     1     5    55  -0.113997E+01  -0.333773E+00   0.397433E+01   0.000000E+00
 
 
 SOLVING FOR HEAD 
                                                   Max.-Head-Change                         Max.-Flux-Residual
  Residual-Control   Outer-Iter.   Inner-Iter.     Column Row Layer    Maximum-Head-Change  Column Row Layer    Maximum-Flux-Residual          L2-NORM 
          0                 1           2             1    1     1      -0.4424023072E-01       1    7    1        -0.1373302323E-02      0.2769381694E-01
          0                 2           2             1    1     1       0.4145547578E-02       1    1    1         0.1373267641E-03      0.2688854313E-02
          0                 3           2             1    1     1      -0.3492133165E-03       1    7    1        -0.1235978431E-04      0.2470609273E-03
          0                 4           1             4    1     1       0.2613399693E-04      30    4    1        -0.1190395198E-05      0.2087156573E-04
          0                 5           1             1    1     1      -0.1694971265E-05      30    4    1         0.1150114866E-06      0.1557490018E-05
          0                 6           1             1    1     1       0.9466390593E-07      30    4    1        -0.8581443112E-08      0.1003958081E-06

    ------------------------------------------------
       NWT REQUIRED            6 OUTER ITERATIONS 
       AND A TOTAL OF          9 INNER ITERATIONS.
    ------------------------------------------------

 NO OUTPUT CONTROL FOR STRESS PERIOD   28   TIME STEP   21
 
 WELLS WITH REDUCED PUMPING FOR STRESS PERIOD    28 TIME STEP    21
   LAY   ROW   COL         APPL.Q          ACT.Q        GW-HEAD       CELL-BOT
     1     3    50  -0.114000E+01  -0.418970E+00   0.460018E+01   0.000000E+00
     1     5    55  -0.114000E+01  -0.333388E+00   0.397154E+01   0.000000E+00
 
 
 SOLVING FOR HEAD 
                                                   Max.-Head-Change                         Max.-Flux-Residual
  Residual-Control   Outer-Iter.   Inner-Iter.     Column Row Layer    Maximum-Head-Change  Column Row Layer    Maximum-Flux-Residual          L2-NORM 
          0                 1           2             1    1     1      -0.4863172106E-01       1    7    1        -0.1372643557E-02      0.2763113719E-01
          0                 2           2             1    1     1       0.4549799695E-02       1    1    1         0.1372604321E-03      0.2682802778E-02
          0                 3           2             1    1     1      -0.3825041384E-03       1    7    1        -0.1235386258E-04      0.2465422335E-03
          0                 4           1             3    1     1       0.2854662198E-04      31    4    1        -0.1177187340E-05      0.2084962706E-04
          0                 5           1             1    1     1      -0.1837202281E-05      32    4    1         0.1126915059E-06      0.1554889293E-05
          0                 6           1             1    1     1       0.1017267243E-06      32    4    1        -0.8397515572E-08      0.1002506339E-06

    ------------------------------------------------
       NWT REQUIRED            6 OUTER ITERATIONS 
       AND A TOTAL OF          9 INNER ITERATIONS.
    ------------------------------------------------

 NO OUTPUT CONTROL FOR STRESS PERIOD   28   TIME STEP   22
 
 WELLS WITH REDUCED PUMPING FOR STRESS PERIOD    28 TIME STEP    22
   LAY   ROW   COL         APPL.Q          ACT.Q        GW-HEAD       CELL-BOT
     1     3    50  -0.113999E+01  -0.418588E+00   0.459761E+01   0.000000E+00
     1     5    55  -0.113999E+01  -0.332933E+00   0.396834E+01   0.000000E+00
 
 
 SOLVING FOR HEAD 
                                                   Max.-Head-Change                         Max.-Flux-Residual
  Residual-Control   Outer-Iter.   Inner-Iter.     Column Row Layer    Maximum-Head-Change  Column Row Layer    Maximum-Flux-Residual          L2-NORM 
          0                 1           2             1    1     1      -0.5345638753E-01       1    7    1        -0.1371912275E-02      0.2756382441E-01
          0                 2           2             1    1     1       0.4993620176E-02       1    1    1         0.1371867974E-03      0.2676317048E-02
          0                 3           2             1    1     1      -0.4190174198E-03       1    7    1        -0.1234728881E-04      0.2460095912E-03
          0                 4           1             3    1     1       0.3118603714E-04      31    4    1        -0.1174647103E-05      0.2082899841E-04
          0                 5           1             1    1     1      -0.1988597706E-05      32    4    1         0.1128837788E-06      0.1551211653E-05
          0                 6           1             1    1     1       0.1089871836E-06      32    4    1        -0.8468379775E-08      0.9995849899E-07

    ------------------------------------------------
       NWT REQUIRED            6 OUTER ITERATIONS 
       AND A TOTAL OF          9 INNER ITERATIONS.
    ------------------------------------------------

 NO OUTPUT CONTROL FOR STRESS PERIOD   28   TIME STEP   23
 
 WELLS WITH REDUCED PUMPING FOR STRESS PERIOD    28 TIME STEP    23
   LAY   ROW   COL         APPL.Q          ACT.Q        GW-HEAD       CELL-BOT
     1     3    50  -0.114002E+01  -0.418138E+00   0.459449E+01   0.000000E+00
     1     5    55  -0.114002E+01  -0.332415E+00   0.396462E+01   0.000000E+00
 
 
 SOLVING FOR HEAD 
                                                   Max.-Head-Change                         Max.-Flux-Residual
  Residual-Control   Outer-Iter.   Inner-Iter.     Column Row Layer    Maximum-Head-Change  Column Row Layer    Maximum-Flux-Residual          L2-NORM 
          0                 1           3             1    1     1      -0.5875652419E-01       1    7    1        -0.1371101213E-02      0.2749140380E-01
          0                 2           2             1    1     1       0.5481073681E-02       1    7    1         0.1371051315E-03      0.2669258236E-02
          0                 3           2             1    1     1      -0.4590840208E-03       1    7    1        -0.1233999764E-04      0.2454470958E-03
          0                 4           1             3    1     1       0.3407287601E-04      31    4    1        -0.1184314069E-05      0.2080758651E-04
          0                 5           1             1    1     1      -0.2148495143E-05      32    4    1         0.1137325061E-06      0.1546066001E-05
          0                 6           1             1    1     1       0.1163084602E-06      32    4    1        -0.8571500842E-08      0.9949364654E-07

    ------------------------------------------------
       NWT REQUIRED            6 OUTER ITERATIONS 
       AND A TOTAL OF         10 INNER ITERATIONS.
    ------------------------------------------------

 NO OUTPUT CONTROL FOR STRESS PERIOD   28   TIME STEP   24
 
 WELLS WITH REDUCED PUMPING FOR STRESS PERIOD    28 TIME STEP    24
   LAY   ROW   COL         APPL.Q          ACT.Q        GW-HEAD       CELL-BOT
     1     3    50  -0.113999E+01  -0.417602E+00   0.459093E+01   0.000000E+00
     1     5    55  -0.113999E+01  -0.331819E+00   0.396046E+01   0.000000E+00
 
 
 SOLVING FOR HEAD 
                                                   Max.-Head-Change                         Max.-Flux-Residual
  Residual-Control   Outer-Iter.   Inner-Iter.     Column Row Layer    Maximum-Head-Change  Column Row Layer    Maximum-Flux-Residual          L2-NORM 
          0                 1           3             1    1     1      -0.6457789408E-01       1    7    1        -0.1370202182E-02      0.2741461206E-01
          0                 2           2             1    1     1       0.6016086099E-02       1    7    1         0.1370146051E-03      0.2661686536E-02
          0                 3           2             1    1     1      -0.5030252056E-03       1    7    1        -0.1233191540E-04      0.2447563866E-03
          0                 4           1             3    1     1       0.3722974523E-04      31    4    1        -0.1194197718E-05      0.2076637029E-04
          0                 5           1             1    1     1      -0.2317618859E-05      32    4    1         0.1150887492E-06      0.1537767322E-05
          0                 6           1            75    7     1       0.1237599442E-06      32    4    1        -0.8690697939E-08      0.9875304069E-07

    ------------------------------------------------
       NWT REQUIRED            6 OUTER ITERATIONS 
       AND A TOTAL OF         10 INNER ITERATIONS.
    ------------------------------------------------

 NO OUTPUT CONTROL FOR STRESS PERIOD   28   TIME STEP   25
 
 WELLS WITH REDUCED PUMPING FOR STRESS PERIOD    28 TIME STEP    25
   LAY   ROW   COL         APPL.Q          ACT.Q        GW-HEAD       CELL-BOT
     1     3    50  -0.114001E+01  -0.416989E+00   0.458674E+01   0.000000E+00
     1     5    55  -0.114001E+01  -0.331149E+00   0.395569E+01   0.000000E+00
 
 
 SOLVING FOR HEAD 
                                                   Max.-Head-Change                         Max.-Flux-Residual
  Residual-Control   Outer-Iter.   Inner-Iter.     Column Row Layer    Maximum-Head-Change  Column Row Layer    Maximum-Flux-Residual          L2-NORM 
          0                 1           3             1    1     1      -0.7097092082E-01       1    7    1        -0.1369205974E-02      0.2733281443E-01
          0                 2           2             1    1     1       0.6603384225E-02       1    7    1         0.1369142926E-03      0.2653590289E-02
          0                 3           2             1    1     1      -0.5512189973E-03       4    3    1        -0.1232424536E-04      0.2440048388E-03
          0                 4           1             3    1     1       0.4067876356E-04      32    4    1        -0.1184768674E-05      0.2071638605E-04
          0                 5           1             1    1     1      -0.2490262365E-05      32    4    1         0.1172093871E-06      0.1526239354E-05
          0                 6           1            75    7     1       0.1332544658E-06      32    4    1        -0.8879844415E-08      0.9769172487E-07

    ------------------------------------------------
       NWT REQUIRED            6 OUTER ITERATIONS 
       AND A TOTAL OF         10 INNER ITERATIONS.
    ------------------------------------------------

 NO OUTPUT CONTROL FOR STRESS PERIOD   28   TIME STEP   26
 
 WELLS WITH REDUCED PUMPING FOR STRESS PERIOD    28 TIME STEP    26
   LAY   ROW   COL         APPL.Q          ACT.Q        GW-HEAD       CELL-BOT
     1     3    50  -0.114001E+01  -0.416288E+00   0.458200E+01   0.000000E+00
     1     5    55  -0.114001E+01  -0.330395E+00   0.395036E+01   0.000000E+00
 
 
 SOLVING FOR HEAD 
                                                   Max.-Head-Change                         Max.-Flux-Residual
  Residual-Control   Outer-Iter.   Inner-Iter.     Column Row Layer    Maximum-Head-Change  Column Row Layer    Maximum-Flux-Residual          L2-NORM 
          0                 1           3             1    1     1      -0.7799053825E-01       1    7    1        -0.1368102254E-02      0.2724127898E-01
          0                 2           2             1    1     1       0.7248002094E-02       1    7    1         0.1368031532E-03      0.2645142440E-02
          0                 3           2             3    1     1      -0.6040918353E-03       4    3    1        -0.1231742808E-04      0.2432937461E-03
          0                 4           1             3    1     1       0.4444533022E-04      32    4    1        -0.1195178625E-05      0.2067417162E-04
          0                 5           1             1    1     1      -0.2664735669E-05      32    4    1         0.1188279963E-06      0.1513054850E-05
          0                 6           1            75    7     1       0.1422725086E-06      32    4    1        -0.9024509140E-08      0.9644588385E-07

    ------------------------------------------------
       NWT REQUIRED            6 OUTER ITERATIONS 
       AND A TOTAL OF         10 INNER ITERATIONS.
    ------------------------------------------------

 NO OUTPUT CONTROL FOR STRESS PERIOD   28   TIME STEP   27
 
 WELLS WITH REDUCED PUMPING FOR STRESS PERIOD    28 TIME STEP    27
   LAY   ROW   COL         APPL.Q          ACT.Q        GW-HEAD       CELL-BOT
     1     3    50  -0.114000E+01  -0.415500E+00   0.457667E+01   0.000000E+00
     1     5    55  -0.114000E+01  -0.329558E+00   0.394444E+01   0.000000E+00
 
 
 SOLVING FOR HEAD 
                                                   Max.-Head-Change                         Max.-Flux-Residual
  Residual-Control   Outer-Iter.   Inner-Iter.     Column Row Layer    Maximum-Head-Change  Column Row Layer    Maximum-Flux-Residual          L2-NORM 
          0                 1           3             1    1     1      -0.8569667381E-01       1    7    1        -0.1366879433E-02      0.2712884667E-01
          0                 2           2             1    1     1       0.7955425547E-02       1    7    1         0.1366800193E-03      0.2635661147E-02
          0                 3           2             3    1     1      -0.6620803739E-03       4    3    1        -0.1231126422E-04      0.2425391265E-03
          0                 4           1             3    1     1       0.4855390093E-04      32    4    1        -0.1201701950E-05      0.2062920871E-04
          0                 5           1             1    1     1      -0.2835865420E-05      32    4    1         0.1198132011E-06      0.1497150781E-05
          0                 6           1            75    7     1       0.1517594130E-06      32    4    1        -0.9094264897E-08      0.9498533338E-07

    ------------------------------------------------
       NWT REQUIRED            6 OUTER ITERATIONS 
       AND A TOTAL OF         10 INNER ITERATIONS.
    ------------------------------------------------

 NO OUTPUT CONTROL FOR STRESS PERIOD   28   TIME STEP   28
 
 WELLS WITH REDUCED PUMPING FOR STRESS PERIOD    28 TIME STEP    28
   LAY   ROW   COL         APPL.Q          ACT.Q        GW-HEAD       CELL-BOT
     1     3    50  -0.113998E+01  -0.414616E+00   0.457074E+01   0.000000E+00
     1     5    55  -0.113998E+01  -0.328633E+00   0.393793E+01   0.000000E+00
 
 
 SOLVING FOR HEAD 
                                                   Max.-Head-Change                         Max.-Flux-Residual
  Residual-Control   Outer-Iter.   Inner-Iter.     Column Row Layer    Maximum-Head-Change  Column Row Layer    Maximum-Flux-Residual          L2-NORM 
          0                 1           3             1    1     1      -0.9191644422E-01       1    7    1        -0.1365524529E-02      0.2685701123E-01
          0                 2           2             1    1     1       0.8478030983E-02       1    7    1         0.1365100607E-03      0.2621472710E-02
          0                 3           2            22    7     1      -0.7014956164E-03       4    3    1        -0.1230199351E-04      0.2427154340E-03
          0                 4           1            22    7     1       0.5116907197E-04      33    4    1        -0.1187166792E-05      0.2076785903E-04
          0                 5           1            73    7     1      -0.3020653940E-05       9    4    1         0.1187019230E-06      0.1498788129E-05
          0                 6           1            73    7     1       0.1625827730E-06      72    4    1        -0.9074661023E-08      0.9486991594E-07

    ------------------------------------------------
       NWT REQUIRED            6 OUTER ITERATIONS 
       AND A TOTAL OF         10 INNER ITERATIONS.
    ------------------------------------------------

 NO OUTPUT CONTROL FOR STRESS PERIOD   28   TIME STEP   29
 
 WELLS WITH REDUCED PUMPING FOR STRESS PERIOD    28 TIME STEP    29
   LAY   ROW   COL         APPL.Q          ACT.Q        GW-HEAD       CELL-BOT
     1     3    50  -0.114001E+01  -0.413640E+00   0.456404E+01   0.000000E+00
     1     5    55  -0.114001E+01  -0.327619E+00   0.393068E+01   0.000000E+00
 
 
 SOLVING FOR HEAD 
                                                   Max.-Head-Change                         Max.-Flux-Residual
  Residual-Control   Outer-Iter.   Inner-Iter.     Column Row Layer    Maximum-Head-Change  Column Row Layer    Maximum-Flux-Residual          L2-NORM 
          0                 1           3             3    1     1      -0.1000234360E+00       1    7    1        -0.1332219533E-02      0.2652175689E-01
          0                 2           3             3    1     1       0.9209534605E-02       1    7    1         0.1331974020E-03      0.2584618756E-02
          0                 3           2             3    1     1      -0.7597673688E-03       1    7    1        -0.1198894870E-04      0.2393335068E-03
          0                 4           1             3    1     1       0.5493932507E-04      33    4    1        -0.1193261062E-05      0.2050578063E-04
          0                 5           1            74    7     1      -0.3235785158E-05      72    4    1         0.1186672787E-06      0.1463610362E-05
          0                 6           1            75    7     1       0.1706644740E-06      72    4    1        -0.9124127232E-08      0.9234194533E-07

    ------------------------------------------------
       NWT REQUIRED            6 OUTER ITERATIONS 
       AND A TOTAL OF         11 INNER ITERATIONS.
    ------------------------------------------------

 NO OUTPUT CONTROL FOR STRESS PERIOD   28   TIME STEP   30
 
 WELLS WITH REDUCED PUMPING FOR STRESS PERIOD    28 TIME STEP    30
   LAY   ROW   COL         APPL.Q          ACT.Q        GW-HEAD       CELL-BOT
     1     3    50  -0.113999E+01  -0.412554E+00   0.455672E+01   0.000000E+00
     1     5    55  -0.113999E+01  -0.326504E+00   0.392280E+01   0.000000E+00
 



 STREAM LISTING     PERIOD     28   STEP       30

 LAYER ROW COL. STREAM  RCH.   FLOW INTO    STREAM     FLOW OUT OF   OVRLND.    DIRECT     STREAM      STREAM      STREAM     STREAM  STREAMBED   FLOW TO   CHNG. UNSAT. 
                SEG.NO.  NO.   STRM. RCH.    LOSS       STRM. RCH.   RUNOFF     PRECIP       ET         HEAD        DEPTH      WIDTH  CONDCTNC.   WAT. TAB.

   1    4    1     1     1    1.7300E+00  8.1341E-04   1.7292E+00  0.000E+00  0.000E+00  0.000E+00  1.40825E+02  9.745E-01  2.978E+00  5.516E-04  7.872E-04  2.620E-05
   1    4    2     1     2    1.7292E+00  8.1317E-04   1.7284E+00  0.000E+00  0.000E+00  0.000E+00  1.40524E+02  9.743E-01  2.978E+00  5.516E-04  7.869E-04  2.629E-05
   1    4    3     1     3    1.7284E+00  8.1293E-04   1.7276E+00  0.000E+00  0.000E+00  0.000E+00  1.40224E+02  9.741E-01  2.978E+00  5.515E-04  7.866E-04  2.636E-05
   1    4    4     1     4    1.7276E+00  8.1269E-04   1.7267E+00  0.000E+00  0.000E+00  0.000E+00  1.39924E+02  9.738E-01  2.978E+00  5.514E-04  7.863E-04  2.643E-05
   1    4    5     1     5    1.7267E+00  8.1245E-04   1.7259E+00  0.000E+00  0.000E+00  0.000E+00  1.39624E+02  9.736E-01  2.977E+00  5.513E-04  7.860E-04  2.647E-05
   1    4    6     1     6    1.7259E+00  8.1221E-04   1.7251E+00  0.000E+00  0.000E+00  0.000E+00  1.39323E+02  9.734E-01  2.977E+00  5.513E-04  7.857E-04  2.650E-05
   1    4    7     1     7    1.7251E+00  8.1197E-04   1.7243E+00  0.000E+00  0.000E+00  0.000E+00  1.39023E+02  9.731E-01  2.977E+00  5.512E-04  7.855E-04  2.651E-05
   1    4    8     1     8    1.7243E+00  8.1172E-04   1.7235E+00  0.000E+00  0.000E+00  0.000E+00  1.38723E+02  9.729E-01  2.977E+00  5.511E-04  7.852E-04  2.651E-05
   1    4    9     1     9    1.7235E+00  8.1148E-04   1.7227E+00  0.000E+00  0.000E+00  0.000E+00  1.38423E+02  9.727E-01  2.976E+00  5.510E-04  7.850E-04  2.649E-05
   1    4   10     1    10    1.7227E+00  8.1124E-04   1.7219E+00  0.000E+00  0.000E+00  0.000E+00  1.38122E+02  9.724E-01  2.976E+00  5.510E-04  7.848E-04  2.645E-05
   1    4   11     1    11    1.7219E+00  8.1100E-04   1.7211E+00  0.000E+00  0.000E+00  0.000E+00  1.37822E+02  9.722E-01  2.976E+00  5.509E-04  7.846E-04  2.640E-05
   1    4   12     1    12    1.7211E+00  8.1076E-04   1.7203E+00  0.000E+00  0.000E+00  0.000E+00  1.37522E+02  9.720E-01  2.975E+00  5.508E-04  7.844E-04  2.633E-05
   1    4   13     1    13    1.7203E+00  8.1052E-04   1.7194E+00  0.000E+00  0.000E+00  0.000E+00  1.37222E+02  9.717E-01  2.975E+00  5.507E-04  7.843E-04  2.624E-05
   1    4   14     1    14    1.7194E+00  8.1028E-04   1.7186E+00  0.000E+00  0.000E+00  0.000E+00  1.36922E+02  9.715E-01  2.975E+00  5.506E-04  7.841E-04  2.613E-05
   1    4   15     1    15    1.7186E+00  8.1004E-04   1.7178E+00  0.000E+00  0.000E+00  0.000E+00  1.36621E+02  9.713E-01  2.975E+00  5.506E-04  7.840E-04  2.600E-05
   1    4   16     1    16    1.7178E+00  8.0980E-04   1.7170E+00  0.000E+00  0.000E+00  0.000E+00  1.36321E+02  9.710E-01  2.974E+00  5.505E-04  7.839E-04  2.585E-05
   1    4   17     1    17    1.7170E+00  8.0956E-04   1.7162E+00  0.000E+00  0.000E+00  0.000E+00  1.36021E+02  9.708E-01  2.974E+00  5.504E-04  7.839E-04  2.567E-05
   1    4   18     1    18    1.7162E+00  8.0932E-04   1.7154E+00  0.000E+00  0.000E+00  0.000E+00  1.35721E+02  9.706E-01  2.974E+00  5.503E-04  7.839E-04  2.547E-05
   1    4   19     1    19    1.7154E+00  8.0908E-04   1.7146E+00  0.000E+00  0.000E+00  0.000E+00  1.35420E+02  9.703E-01  2.973E+00  5.503E-04  7.838E-04  2.524E-05
   1    4   20     1    20    1.7146E+00  8.0884E-04   1.7138E+00  0.000E+00  0.000E+00  0.000E+00  1.35120E+02  9.701E-01  2.973E+00  5.502E-04  7.838E-04  2.500E-05
   1    4   21     1    21    1.7138E+00  8.0860E-04   1.7130E+00  0.000E+00  0.000E+00  0.000E+00  1.34820E+02  9.699E-01  2.973E+00  5.501E-04  7.838E-04  2.479E-05
   1    4   22     1    22    1.7130E+00  8.0836E-04   1.7122E+00  0.000E+00  0.000E+00  0.000E+00  1.34520E+02  9.696E-01  2.973E+00  5.500E-04  7.485E-04  5.982E-05
   1    4   23     1    23    1.7122E+00  8.0812E-04   1.7114E+00  0.000E+00  0.000E+00  0.000E+00  1.34219E+02  9.694E-01  2.972E+00  5.500E-04  7.038E-04  1.043E-04
   1    4   24     1    24    1.7114E+00  8.0788E-04   1.7105E+00  0.000E+00  0.000E+00  0.000E+00  1.33919E+02  9.692E-01  2.972E+00  5.499E-04  6.583E-04  1.496E-04
   1    4   25     1    25    1.7105E+00  8.0764E-04   1.7097E+00  0.000E+00  0.000E+00  0.000E+00  1.33619E+02  9.689E-01  2.972E+00  5.498E-04  6.325E-04  1.752E-04
   1    4   26     1    26    1.7097E+00  8.0740E-04   1.7089E+00  0.000E+00  0.000E+00  0.000E+00  1.33319E+02  9.687E-01  2.971E+00  5.497E-04  5.767E-04  2.307E-04
   1    4   27     1    27    1.7089E+00  8.0716E-04   1.7081E+00  0.000E+00  0.000E+00  0.000E+00  1.33018E+02  9.685E-01  2.971E+00  5.497E-04  5.172E-04  2.900E-04
   1    4   28     1    28    1.7081E+00  8.0692E-04   1.7073E+00  0.000E+00  0.000E+00  0.000E+00  1.32718E+02  9.682E-01  2.971E+00  5.496E-04  5.125E-04  2.944E-04
   1    4   29     1    29    1.7073E+00  8.0668E-04   1.7065E+00  0.000E+00  0.000E+00  0.000E+00  1.32418E+02  9.680E-01  2.971E+00  5.495E-04  5.126E-04  2.940E-04
   1    4   30     1    30    1.7065E+00  8.0644E-04   1.7057E+00  0.000E+00  0.000E+00  0.000E+00  1.32118E+02  9.678E-01  2.970E+00  5.494E-04  5.129E-04  2.936E-04
   1    4   31     1    31    1.7057E+00  8.0620E-04   1.7049E+00  0.000E+00  0.000E+00  0.000E+00  1.31818E+02  9.675E-01  2.970E+00  5.494E-04  5.131E-04  2.931E-04
   1    4   32     1    32    1.7049E+00  8.0596E-04   1.7041E+00  0.000E+00  0.000E+00  0.000E+00  1.31517E+02  9.673E-01  2.970E+00  5.493E-04  5.135E-04  2.925E-04
   1    4   33     1    33    1.7041E+00  8.0572E-04   1.7033E+00  0.000E+00  0.000E+00  0.000E+00  1.31217E+02  9.671E-01  2.970E+00  5.492E-04  5.740E-04  2.317E-04
   1    4   34     1    34    1.7033E+00  8.0548E-04   1.7025E+00  0.000E+00  0.000E+00  0.000E+00  1.30917E+02  9.668E-01  2.969E+00  5.491E-04  5.748E-04  2.307E-04
   1    4   35     1    35    1.7025E+00  8.0524E-04   1.7017E+00  0.000E+00  0.000E+00  0.000E+00  1.30617E+02  9.666E-01  2.969E+00  5.490E-04  5.757E-04  2.295E-04
   1    4   36     1    36    1.7017E+00  8.0500E-04   1.7009E+00  0.000E+00  0.000E+00  0.000E+00  1.30316E+02  9.664E-01  2.969E+00  5.490E-04  5.767E-04  2.283E-04
   1    4   37     1    37    1.7009E+00  8.0476E-04   1.7001E+00  0.000E+00  0.000E+00  0.000E+00  1.30016E+02  9.661E-01  2.968E+00  5.489E-04  5.779E-04  2.269E-04
   1    4   38     1    38    1.7001E+00  8.0452E-04   1.6993E+00  0.000E+00  0.000E+00  0.000E+00  1.29716E+02  9.659E-01  2.968E+00  5.488E-04  5.792E-04  2.253E-04
   1    4   39     1    39    1.6993E+00  8.0428E-04   1.6985E+00  0.000E+00  0.000E+00  0.000E+00  1.29416E+02  9.657E-01  2.968E+00  5.487E-04  5.807E-04  2.236E-04
   1    4   40     1    40    1.6985E+00  8.0404E-04   1.6977E+00  0.000E+00  0.000E+00  0.000E+00  1.29115E+02  9.654E-01  2.968E+00  5.487E-04  5.825E-04  2.215E-04
   1    4   41     1    41    1.6977E+00  8.0380E-04   1.6968E+00  0.000E+00  0.000E+00  0.000E+00  1.28815E+02  9.652E-01  2.967E+00  5.486E-04  5.847E-04  2.191E-04
   1    4   42     1    42    1.6968E+00  8.0356E-04   1.6960E+00  0.000E+00  0.000E+00  0.000E+00  1.28515E+02  9.650E-01  2.967E+00  5.485E-04  5.873E-04  2.162E-04
   1    4   43     1    43    1.6960E+00  8.0333E-04   1.6952E+00  0.000E+00  0.000E+00  0.000E+00  1.28215E+02  9.647E-01  2.967E+00  5.484E-04  5.400E-04  2.633E-04
   1    4   44     1    44    1.6952E+00  8.0309E-04   1.6944E+00  0.000E+00  0.000E+00  0.000E+00  1.27915E+02  9.645E-01  2.966E+00  5.484E-04  5.131E-04  2.900E-04
   1    4   45     1    45    1.6944E+00  8.0285E-04   1.6936E+00  0.000E+00  0.000E+00  0.000E+00  1.27614E+02  9.643E-01  2.966E+00  5.483E-04  5.168E-04  2.860E-04
   1    4   46     1    46    1.6936E+00  8.0261E-04   1.6928E+00  0.000E+00  0.000E+00  0.000E+00  1.27314E+02  9.640E-01  2.966E+00  5.482E-04  5.213E-04  2.813E-04
   1    4   47     1    47    1.6928E+00  8.0237E-04   1.6920E+00  0.000E+00  0.000E+00  0.000E+00  1.27014E+02  9.638E-01  2.966E+00  5.481E-04  5.431E-04  2.593E-04
   1    4   48     1    48    1.6920E+00  8.0213E-04   1.6912E+00  0.000E+00  0.000E+00  0.000E+00  1.26714E+02  9.636E-01  2.965E+00  5.481E-04  5.874E-04  2.147E-04
   1    4   49     1    49    1.6912E+00  8.0189E-04   1.6904E+00  0.000E+00  0.000E+00  0.000E+00  1.26413E+02  9.634E-01  2.965E+00  5.480E-04  5.582E-04  2.437E-04
   1    4   50     1    50    1.6904E+00  8.0165E-04   1.6896E+00  0.000E+00  0.000E+00  0.000E+00  1.26113E+02  9.631E-01  2.965E+00  5.479E-04  5.969E-04  2.048E-04
   1    4   51     1    51    1.6896E+00  8.0142E-04   1.6888E+00  0.000E+00  0.000E+00  0.000E+00  1.25813E+02  9.629E-01  2.965E+00  5.478E-04  5.939E-04  2.075E-04
   1    4   52     1    52    1.6888E+00  8.0118E-04   1.6880E+00  0.000E+00  0.000E+00  0.000E+00  1.25513E+02  9.627E-01  2.964E+00  5.478E-04  5.768E-04  2.244E-04
   1    4   53     1    53    1.6880E+00  8.0094E-04   1.6872E+00  0.000E+00  0.000E+00  0.000E+00  1.25212E+02  9.624E-01  2.964E+00  5.477E-04  5.773E-04  2.236E-04
   1    4   54     1    54    1.6872E+00  8.0070E-04   1.6864E+00  0.000E+00  0.000E+00  0.000E+00  1.24912E+02  9.622E-01  2.964E+00  5.476E-04  5.914E-04  2.093E-04
   1    4   55     1    55    1.6864E+00  8.0046E-04   1.6856E+00  0.000E+00  0.000E+00  0.000E+00  1.24612E+02  9.620E-01  2.963E+00  5.475E-04  5.926E-04  2.078E-04
   1    4   56     1    56    1.6856E+00  8.0022E-04   1.6848E+00  0.000E+00  0.000E+00  0.000E+00  1.24312E+02  9.617E-01  2.963E+00  5.475E-04  5.370E-04  2.632E-04
   1    4   57     1    57    1.6848E+00  7.9998E-04   1.6840E+00  0.000E+00  0.000E+00  0.000E+00  1.24011E+02  9.615E-01  2.963E+00  5.474E-04  5.787E-04  2.212E-04
   1    4   58     1    58    1.6840E+00  7.9975E-04   1.6832E+00  0.000E+00  0.000E+00  0.000E+00  1.23711E+02  9.613E-01  2.963E+00  5.473E-04  5.704E-04  2.293E-04
   1    4   59     1    59    1.6832E+00  7.9951E-04   1.6824E+00  0.000E+00  0.000E+00  0.000E+00  1.23411E+02  9.610E-01  2.962E+00  5.472E-04  5.117E-04  2.878E-04
   1    4   60     1    60    1.6824E+00  7.9927E-04   1.6816E+00  0.000E+00  0.000E+00  0.000E+00  1.23111E+02  9.608E-01  2.962E+00  5.471E-04  5.064E-04  2.928E-04
   1    4   61     1    61    1.6816E+00  7.9903E-04   1.6808E+00  0.000E+00  0.000E+00  0.000E+00  1.22811E+02  9.606E-01  2.962E+00  5.471E-04  5.020E-04  2.971E-04
   1    4   62     1    62    1.6808E+00  7.9879E-04   1.6800E+00  0.000E+00  0.000E+00  0.000E+00  1.22510E+02  9.603E-01  2.961E+00  5.470E-04  4.983E-04  3.005E-04
   1    4   63     1    63    1.6800E+00  7.9856E-04   1.6792E+00  0.000E+00  0.000E+00  0.000E+00  1.22210E+02  9.601E-01  2.961E+00  5.469E-04  5.542E-04  2.444E-04
   1    4   64     1    64    1.6792E+00  7.9832E-04   1.6784E+00  0.000E+00  0.000E+00  0.000E+00  1.21910E+02  9.599E-01  2.961E+00  5.468E-04  5.719E-04  2.264E-04
   1    4   65     1    65    1.6784E+00  7.9808E-04   1.6776E+00  0.000E+00  0.000E+00  0.000E+00  1.21610E+02  9.596E-01  2.961E+00  5.468E-04  5.694E-04  2.287E-04
   1    4   66     1    66    1.6776E+00  7.9784E-04   1.6768E+00  0.000E+00  0.000E+00  0.000E+00  1.21309E+02  9.594E-01  2.960E+00  5.467E-04  5.674E-04  2.305E-04
   1    4   67     1    67    1.6768E+00  7.9761E-04   1.6760E+00  0.000E+00  0.000E+00  0.000E+00  1.21009E+02  9.592E-01  2.960E+00  5.466E-04  5.657E-04  2.319E-04
   1    4   68     1    68    1.6760E+00  7.9737E-04   1.6752E+00  0.000E+00  0.000E+00  0.000E+00  1.20709E+02  9.589E-01  2.960E+00  5.465E-04  5.644E-04  2.330E-04
   1    4   69     1    69    1.6752E+00  7.9713E-04   1.6744E+00  0.000E+00  0.000E+00  0.000E+00  1.20409E+02  9.587E-01  2.960E+00  5.465E-04  5.633E-04  2.339E-04
   1    4   70     1    70    1.6744E+00  7.9689E-04   1.6736E+00  0.000E+00  0.000E+00  0.000E+00  1.20108E+02  9.585E-01  2.959E+00  5.464E-04  5.624E-04  2.345E-04
   1    4   71     1    71    1.6736E+00  7.9666E-04   1.6728E+00  0.000E+00  0.000E+00  0.000E+00  1.19808E+02  9.582E-01  2.959E+00  5.463E-04  5.618E-04  2.348E-04
   1    4   72     1    72    1.6728E+00  7.9642E-04   1.6720E+00  0.000E+00  0.000E+00  0.000E+00  1.19508E+02  9.580E-01  2.959E+00  5.462E-04  5.614E-04  2.350E-04
   1    4   73     1    73    1.6720E+00  7.9618E-04   1.6713E+00  0.000E+00  0.000E+00  0.000E+00  1.19208E+02  9.578E-01  2.958E+00  5.462E-04  5.018E-04  2.944E-04
   1    4   74     1    74    1.6713E+00  7.9594E-04   1.6705E+00  0.000E+00  0.000E+00  0.000E+00  1.18908E+02  9.575E-01  2.958E+00  5.461E-04  5.018E-04  2.941E-04
   1    4   75     1    75    1.6705E+00  7.9571E-04   1.6697E+00  0.000E+00  0.000E+00  0.000E+00  1.18607E+02  9.573E-01  2.958E+00  5.460E-04  5.021E-04  2.937E-04
   1    4   76     1    76    1.6697E+00  7.9547E-04   1.6689E+00  0.000E+00  0.000E+00  0.000E+00  1.18307E+02  9.571E-01  2.958E+00  5.459E-04  5.025E-04  2.930E-04
   1    4   77     1    77    1.6689E+00  7.9523E-04   1.6681E+00  0.000E+00  0.000E+00  0.000E+00  1.18007E+02  9.568E-01  2.957E+00  5.459E-04  5.031E-04  2.921E-04
   1    4   78     1    78    1.6681E+00  7.9500E-04   1.6673E+00  0.000E+00  0.000E+00  0.000E+00  1.17707E+02  9.566E-01  2.957E+00  5.458E-04  5.411E-04  2.539E-04
   1    4   79     1    79    1.6673E+00  7.9476E-04   1.6665E+00  0.000E+00  0.000E+00  0.000E+00  1.17406E+02  9.564E-01  2.957E+00  5.457E-04  6.112E-04  1.836E-04
   1    4   80     1    80    1.6665E+00  7.9452E-04   1.6657E+00  0.000E+00  0.000E+00  0.000E+00  1.17106E+02  9.561E-01  2.956E+00  5.456E-04  6.778E-04  1.167E-04
   1    4   81     1    81    1.6657E+00  7.9428E-04   1.6649E+00  0.000E+00  0.000E+00  0.000E+00  1.16806E+02  9.559E-01  2.956E+00  5.456E-04  7.411E-04  5.315E-05
   1    4   82     1    82    1.6649E+00  7.9405E-04   1.6641E+00  0.000E+00  0.000E+00  0.000E+00  1.16506E+02  9.557E-01  2.956E+00  5.455E-04  8.012E-04 -7.117E-06
   1    4   83     1    83    1.6641E+00  7.9381E-04   1.6633E+00  0.000E+00  0.000E+00  0.000E+00  1.16205E+02  9.555E-01  2.956E+00  5.454E-04  8.074E-04 -1.355E-05
   1    4   84     1    84    1.6633E+00  7.9357E-04   1.6625E+00  0.000E+00  0.000E+00  0.000E+00  1.15905E+02  9.552E-01  2.955E+00  5.453E-04  8.089E-04 -1.534E-05
   1    4   85     1    85    1.6625E+00  7.9334E-04   1.6617E+00  0.000E+00  0.000E+00  0.000E+00  1.15605E+02  9.550E-01  2.955E+00  5.453E-04  7.889E-04  4.431E-06
   1    4   86     1    86    1.6617E+00  7.9310E-04   1.6609E+00  0.000E+00  0.000E+00  0.000E+00  1.15305E+02  9.548E-01  2.955E+00  5.452E-04  7.886E-04  4.549E-06
   1    4   87     1    87    1.6609E+00  7.9286E-04   1.6601E+00  0.000E+00  0.000E+00  0.000E+00  1.15005E+02  9.545E-01  2.955E+00  5.451E-04  7.909E-04  1.965E-06
   1    4   88     1    88    1.6601E+00  7.9263E-04   1.6593E+00  0.000E+00  0.000E+00  0.000E+00  1.14704E+02  9.543E-01  2.954E+00  5.450E-04  7.935E-04 -8.504E-07
   1    4   89     1    89    1.6593E+00  7.9239E-04   1.6585E+00  0.000E+00  0.000E+00  0.000E+00  1.14404E+02  9.541E-01  2.954E+00  5.450E-04  7.963E-04 -3.920E-06
   1    4   90     1    90    1.6585E+00  7.9216E-04   1.6578E+00  0.000E+00  0.000E+00  0.000E+00  1.14104E+02  9.538E-01  2.954E+00  5.449E-04  7.993E-04 -7.143E-06
   1    4   91     1    91    1.6578E+00  7.9192E-04   1.6570E+00  0.000E+00  0.000E+00  0.000E+00  1.13804E+02  9.536E-01  2.953E+00  5.448E-04  8.024E-04 -1.050E-05
   1    4   92     1    92    1.6570E+00  7.9168E-04   1.6562E+00  0.000E+00  0.000E+00  0.000E+00  1.13503E+02  9.534E-01  2.953E+00  5.447E-04  8.056E-04 -1.396E-05
   1    4   93     1    93    1.6562E+00  7.9145E-04   1.6554E+00  0.000E+00  0.000E+00  0.000E+00  1.13203E+02  9.531E-01  2.953E+00  5.446E-04  8.090E-04 -1.753E-05
   1    4   94     1    94    1.6554E+00  7.9121E-04   1.6546E+00  0.000E+00  0.000E+00  0.000E+00  1.12903E+02  9.529E-01  2.953E+00  5.446E-04  8.124E-04 -2.117E-05
   1    4   95     1    95    1.6546E+00  7.9097E-04   1.6538E+00  0.000E+00  0.000E+00  0.000E+00  1.12603E+02  9.527E-01  2.952E+00  5.445E-04  8.158E-04 -2.485E-05
   1    4   96     1    96    1.6538E+00  7.9074E-04   1.6530E+00  0.000E+00  0.000E+00  0.000E+00  1.12302E+02  9.524E-01  2.952E+00  5.444E-04  8.193E-04 -2.854E-05
   1    4   97     1    97    1.6530E+00  7.9050E-04   1.6522E+00  0.000E+00  0.000E+00  0.000E+00  1.12002E+02  9.522E-01  2.952E+00  5.443E-04  8.184E-04 -2.790E-05
   1    4   98     1    98    1.6522E+00  7.9027E-04   1.6514E+00  0.000E+00  0.000E+00  0.000E+00  1.11702E+02  9.520E-01  2.951E+00  5.443E-04  8.057E-04 -1.539E-05
   1    4   99     1    99    1.6514E+00  7.9003E-04   1.6506E+00  0.000E+00  0.000E+00  0.000E+00  1.11402E+02  9.517E-01  2.951E+00  5.442E-04  8.088E-04 -1.878E-05
   1    4  100     1   100    1.6506E+00  7.8980E-04   1.6498E+00  0.000E+00  0.000E+00  0.000E+00  1.11102E+02  9.515E-01  2.951E+00  5.441E-04  8.119E-04 -2.207E-05



1
  VOLUMETRIC BUDGET FOR UNSATURATED ZONE BENEATH STREAMS AT END OF TIME STEP    30 STRESS PERIOD  28
  ------------------------------------------------------------------------------------------------

    CUMULATIVE VOLUMES             L**3    RATES FOR THIS TIME STEP         L**3/T
    ------------------                     ------------------------


          STREAM LOSS =     27754502.0000            STREAM LOSS =        8.0156E-02
    CHANGE IN STORAGE =      1163148.1250      CHANGE IN STORAGE =        1.4455E-02
       RECHARGE TO GW =     26598358.0000         RECHARGE TO GW =        6.5701E-02

             TOTAL IN =     27754502.0000               TOTAL IN =        8.0156E-02

            TOTAL OUT =     27761506.0000              TOTAL OUT =        8.0156E-02

             IN - OUT =        -7004.0000               IN - OUT =            0.0000

  PERCENT DISCREPANCY =           -0.01      PERCENT DISCREPANCY =             0.00



1
  VOLUMETRIC BUDGET FOR ENTIRE MODEL AT END OF TIME STEP   30, STRESS PERIOD  28
  ------------------------------------------------------------------------------

     CUMULATIVE VOLUMES      L**3       RATES FOR THIS TIME STEP      L**3/T
     ------------------                 ------------------------

           IN:                                      IN:
           ---                                      ---
             STORAGE     =    95887432.0000               STORAGE     =           0.6490
       CONSTANT HEAD     =           0.0000         CONSTANT HEAD     =           0.0000
               WELLS     =           0.0000                 WELLS     =           0.0000
     HEAD DEP BOUNDS     =       82338.8359       HEAD DEP BOUNDS     =       2.4391E-02
      STREAM LEAKAGE     =    26598276.0000        STREAM LEAKAGE     =       6.5701E-02

                TOTAL IN =   122568048.0000                  TOTAL IN =           0.7391

          OUT:                                     OUT:
          ----                                     ----
             STORAGE     =     3115058.7500               STORAGE     =           0.0000
       CONSTANT HEAD     =           0.0000         CONSTANT HEAD     =           0.0000
               WELLS     =   103067160.0000                 WELLS     =           0.7391
     HEAD DEP BOUNDS     =    16385952.0000       HEAD DEP BOUNDS     =           0.0000
      STREAM LEAKAGE     =           0.0000        STREAM LEAKAGE     =           0.0000

               TOTAL OUT =   122568168.0000                 TOTAL OUT =           0.7391

                IN - OUT =        -120.0000                  IN - OUT =      -5.9605E-08

     PERCENT DISCREPANCY =          -0.00         PERCENT DISCREPANCY =          -0.00






         TIME SUMMARY AT END OF TIME STEP   30 IN STRESS PERIOD   28
                    SECONDS     MINUTES      HOURS       DAYS        YEARS
                    -----------------------------------------------------------
   TIME STEP LENGTH 2.49961E+05  4166.0      69.434      2.8931     7.92080E-03
 STRESS PERIOD TIME 2.59200E+06  43200.      720.00      30.000     8.21355E-02
         TOTAL TIME 7.25760E+07 1.20960E+06  20160.      840.00      2.2998    
1
1
                            STRESS PERIOD NO.   29, LENGTH =   2592000.    
                            -----------------------------------------------

                              NUMBER OF TIME STEPS =    30

                               MULTIPLIER FOR DELT =     1.100

                            INITIAL TIME STEP SIZE =   15757.40    

 REUSING NON-PARAMETER WELLS FROM LAST STRESS PERIOD

      1 WELL 

 REUSING NON-PARAMETER GHB CELLS FROM LAST STRESS PERIOD

      7 GHB CELLS



 CLASSIFICATION & COUNT OF STREAM SEGMENTS BASED ON SOURCE OF INFLOW:

                HEADWATER     DIVERSION     RECEIVES TRIBUTARY FLOW
                ---------     ---------     -----------------------
                     1              0               0



                    INPUT DATA FOR EACH STREAM SEGMENT
 ---------------------------------------------------------------------------------------------

 SEGMENT    SEG.     INFLOW   OVERLAND   STREAM    STREAM   ICALC  OUTFLOW  DIVERSION PRIORITY
    NO.    LENGTH     RATE     RUNOFF      ET       PPT.    METH.  TO SEG.  FROM SEG.    NO.

      1  2.000E+04 5.680E+00 0.000E+00 0.000E+00 0.000E+00    2        0        0        0


         STREAMBED PROPERTIES AND STREAM DIMENSIONS

 SEGMENT     BED HYD. COND.      BED THICKNESS     ELEV.-TOP OF BED     WIDTH OF STREAM     DEPTH OF STREAM    STREAM ROUGHNESS
    No.     UPPER     LOWER     UPPER     LOWER     UPPER     LOWER     UPPER     LOWER     UPPER     LOWER   CHANNEL      BANK

     1  3.500E-07 3.500E-07                                                                                 3.000E-02 4.000E-02

  EIGHT POINT CROSS-SECTION DATA FOR SEGMENTS WITH ICALC = 2
    X VALUES X VALUES START FROM LEFT SIDE LOOKING DOWNSTREAM

     SEGMENT NO.        X1        X2        X3        X4        X5        X6        X7        X8
            1      0.000E+00 2.000E+00 4.000E+00 6.000E+00 8.000E+00 1.000E+01 1.200E+01 1.400E+01

    Z VALUES ARE RELATIVE TO STREAMBED ELEVATION

     SEGMENT NO.          Z1        Z2        Z3        Z4        Z5        Z6        Z7        Z8
            1      6.000E+00 4.500E+00 3.500E+00 0.000E+00 3.000E-01 3.500E+00 4.500E+00 6.000E+00



 
 SOLVING FOR HEAD 
                                                   Max.-Head-Change                         Max.-Flux-Residual
  Residual-Control   Outer-Iter.   Inner-Iter.     Column Row Layer    Maximum-Head-Change  Column Row Layer    Maximum-Flux-Residual          L2-NORM 
          0                 1           2            50    3     1       0.5133357600E+00      50    3    1         0.1695098100E+00      0.2177461661E+00
          0                 2           2            50    3     1      -0.5228799599E-01      50    3    1        -0.1769324545E-01      0.2286969864E-01
          0                 3           2            50    3     1       0.4642401697E-02      50    3    1         0.1587648978E-02      0.2051797225E-02
          0                 4           2            50    3     1      -0.3684489913E-03      50    3    1        -0.1272092724E-03      0.1644708714E-03
          0                 5           1            50    3     1       0.2566539197E-04      50    3    1         0.8942447703E-05      0.1156431435E-04
          0                 6           1            50    3     1      -0.1541140473E-05      50    3    1        -0.5418781026E-06      0.7008578368E-06
          0                 7           1            50    3     1       0.7787178480E-07      50    3    1         0.2763040302E-07      0.3573992032E-07

    ------------------------------------------------
       NWT REQUIRED            7 OUTER ITERATIONS 
       AND A TOTAL OF         11 INNER ITERATIONS.
    ------------------------------------------------

 NO OUTPUT CONTROL FOR STRESS PERIOD   29   TIME STEP    1
 
 WELLS WITH REDUCED PUMPING FOR STRESS PERIOD    29 TIME STEP     1
   LAY   ROW   COL         APPL.Q          ACT.Q        GW-HEAD       CELL-BOT
     1     3    50  -0.671303E+00  -0.283876E+00   0.502207E+01   0.000000E+00
     1     5    55  -0.671303E+00  -0.224144E+00   0.429966E+01   0.000000E+00
 
 
 SOLVING FOR HEAD 
                                                   Max.-Head-Change                         Max.-Flux-Residual
  Residual-Control   Outer-Iter.   Inner-Iter.     Column Row Layer    Maximum-Head-Change  Column Row Layer    Maximum-Flux-Residual          L2-NORM 
          0                 1           2            50    3     1       0.3483723584E+00      50    3    1         0.1068203709E+00      0.1404944529E+00
          0                 2           2            50    3     1      -0.3452244886E-01      50    3    1        -0.1091855560E-01      0.1439940523E-01
          0                 3           2            50    3     1       0.3061483499E-02      50    3    1         0.9814147852E-03      0.1295324391E-02
          0                 4           2            50    3     1      -0.2427912742E-03      50    3    1        -0.7862099021E-04      0.1038755537E-03
          0                 5           1            50    3     1       0.1691135543E-04      50    3    1         0.5526920121E-05      0.7306915928E-05
          0                 6           1            50    3     1      -0.1015481636E-05      50    3    1        -0.3349095207E-06      0.4429687271E-06
          0                 7           1            50    3     1       0.5131089692E-07      50    3    1         0.1707704728E-07      0.2259331410E-07

    ------------------------------------------------
       NWT REQUIRED            7 OUTER ITERATIONS 
       AND A TOTAL OF         11 INNER ITERATIONS.
    ------------------------------------------------

 NO OUTPUT CONTROL FOR STRESS PERIOD   29   TIME STEP    2
 
 WELLS WITH REDUCED PUMPING FOR STRESS PERIOD    29 TIME STEP     2
   LAY   ROW   COL         APPL.Q          ACT.Q        GW-HEAD       CELL-BOT
     1     3    50  -0.670110E+00  -0.311626E+00   0.533875E+01   0.000000E+00
     1     5    55  -0.670110E+00  -0.246421E+00   0.456074E+01   0.000000E+00
 
 
 SOLVING FOR HEAD 
                                                   Max.-Head-Change                         Max.-Flux-Residual
  Residual-Control   Outer-Iter.   Inner-Iter.     Column Row Layer    Maximum-Head-Change  Column Row Layer    Maximum-Flux-Residual          L2-NORM 
          0                 1           2            50    3     1       0.2333375823E+00      50    3    1         0.6586584428E-01      0.9110676130E-01
          0                 2           2            50    3     1      -0.2266146441E-01      50    3    1        -0.6663675810E-02      0.9148682816E-02
          0                 3           2            50    3     1       0.2002825185E-02      50    3    1         0.5993762446E-03      0.8246458730E-03
          0                 4           2            50    3     1      -0.1586573738E-03      50    3    1        -0.4801240756E-04      0.6621842468E-04
          0                 5           1            50    3     1       0.1104931756E-04      50    3    1         0.3375211903E-05      0.4663323924E-05
          0                 6           1            50    3     1      -0.6634766539E-06      50    3    1        -0.2045238488E-06      0.2829421370E-06

    ------------------------------------------------
       NWT REQUIRED            6 OUTER ITERATIONS 
       AND A TOTAL OF         10 INNER ITERATIONS.
    ------------------------------------------------

 NO OUTPUT CONTROL FOR STRESS PERIOD   29   TIME STEP    3
 
 WELLS WITH REDUCED PUMPING FOR STRESS PERIOD    29 TIME STEP     3
   LAY   ROW   COL         APPL.Q          ACT.Q        GW-HEAD       CELL-BOT
     1     3    50  -0.669914E+00  -0.330586E+00   0.555128E+01   0.000000E+00
     1     5    55  -0.669914E+00  -0.261972E+00   0.473800E+01   0.000000E+00
 
 
 SOLVING FOR HEAD 
                                                   Max.-Head-Change                         Max.-Flux-Residual
  Residual-Control   Outer-Iter.   Inner-Iter.     Column Row Layer    Maximum-Head-Change  Column Row Layer    Maximum-Flux-Residual          L2-NORM 
          0                 1           2            50    3     1       0.1555806670E+00      50    3    1         0.4004074783E-01      0.6147043320E-01
          0                 2           2            50    3     1      -0.1484295701E-01      50    3    1        -0.4029131992E-02      0.6047303136E-02
          0                 3           2            50    3     1       0.1305001791E-02      50    3    1         0.3625117259E-03      0.5461713041E-03
          0                 4           1            50    3     1      -0.1032054989E-03      50    3    1        -0.2903774686E-04      0.4398713833E-04
          0                 5           1            50    3     1       0.7185097293E-05      50    3    1         0.2041299912E-05      0.3106063476E-05
          0                 6           1            50    3     1      -0.4314295775E-06      50    3    1        -0.1236933619E-06      0.1888491620E-06

    ------------------------------------------------
       NWT REQUIRED            6 OUTER ITERATIONS 
       AND A TOTAL OF          9 INNER ITERATIONS.
    ------------------------------------------------

 NO OUTPUT CONTROL FOR STRESS PERIOD   29   TIME STEP    4
 
 WELLS WITH REDUCED PUMPING FOR STRESS PERIOD    29 TIME STEP     4
   LAY   ROW   COL         APPL.Q          ACT.Q        GW-HEAD       CELL-BOT
     1     3    50  -0.670092E+00  -0.343412E+00   0.569323E+01   0.000000E+00
     1     5    55  -0.670092E+00  -0.272617E+00   0.485698E+01   0.000000E+00
 
 
 SOLVING FOR HEAD 
                                                   Max.-Head-Change                         Max.-Flux-Residual
  Residual-Control   Outer-Iter.   Inner-Iter.     Column Row Layer    Maximum-Head-Change  Column Row Layer    Maximum-Flux-Residual          L2-NORM 
          0                 1           2            50    3     1       0.1050570954E+00      50    3    1         0.2438889410E-01      0.4514293228E-01
          0                 2           2            50    3     1      -0.9850810488E-02      50    3    1        -0.2445913094E-02      0.4366821993E-02
          0                 3           2            50    3     1       0.8602960166E-03      50    3    1         0.2201007936E-03      0.3952852289E-03
          0                 4           1            50    3     1      -0.6787562918E-04      50    3    1        -0.1763013805E-04      0.3199344533E-04
          0                 5           1            50    3     1       0.4722739686E-05      50    3    1         0.1239348370E-05      0.2270114246E-05
          0                 6           1            50    3     1      -0.2835557123E-06      50    3    1        -0.7509761446E-07      0.1385615294E-06

    ------------------------------------------------
       NWT REQUIRED            6 OUTER ITERATIONS 
       AND A TOTAL OF          9 INNER ITERATIONS.
    ------------------------------------------------

 NO OUTPUT CONTROL FOR STRESS PERIOD   29   TIME STEP    5
 
 WELLS WITH REDUCED PUMPING FOR STRESS PERIOD    29 TIME STEP     5
   LAY   ROW   COL         APPL.Q          ACT.Q        GW-HEAD       CELL-BOT
     1     3    50  -0.670046E+00  -0.351998E+00   0.578923E+01   0.000000E+00
     1     5    55  -0.670046E+00  -0.279764E+00   0.493723E+01   0.000000E+00
 
 
 SOLVING FOR HEAD 
                                                   Max.-Head-Change                         Max.-Flux-Residual
  Residual-Control   Outer-Iter.   Inner-Iter.     Column Row Layer    Maximum-Head-Change  Column Row Layer    Maximum-Flux-Residual          L2-NORM 
          0                 1           2            50    3     1       0.7256907637E-01      50    3    1         0.1502530056E-01      0.3668080120E-01
          0                 2           2            50    3     1      -0.6689721480E-02      50    3    1        -0.1502993298E-02      0.3522924138E-02
          0                 3           2            50    3     1       0.5796454534E-03      50    3    1         0.1352691330E-03      0.3197075291E-03
          0                 4           1            50    3     1      -0.4559055114E-04      50    3    1        -0.1083496075E-04      0.2602948626E-04
          0                 5           1            50    3     1       0.3169325560E-05      50    3    1         0.7616489628E-06      0.1858218982E-05
          0                 6           1            50    3     1      -0.1902586499E-06      50    3    1        -0.4615054222E-07      0.1139980379E-06

    ------------------------------------------------
       NWT REQUIRED            6 OUTER ITERATIONS 
       AND A TOTAL OF          9 INNER ITERATIONS.
    ------------------------------------------------

 NO OUTPUT CONTROL FOR STRESS PERIOD   29   TIME STEP    6
 
 WELLS WITH REDUCED PUMPING FOR STRESS PERIOD    29 TIME STEP     6
   LAY   ROW   COL         APPL.Q          ACT.Q        GW-HEAD       CELL-BOT
     1     3    50  -0.669961E+00  -0.357903E+00   0.585565E+01   0.000000E+00
     1     5    55  -0.669961E+00  -0.284652E+00   0.499222E+01   0.000000E+00
 
 
 SOLVING FOR HEAD 
                                                   Max.-Head-Change                         Max.-Flux-Residual
  Residual-Control   Outer-Iter.   Inner-Iter.     Column Row Layer    Maximum-Head-Change  Column Row Layer    Maximum-Flux-Residual          L2-NORM 
          0                 1           2            50    2     1       0.5607351041E-01      50    3    1         0.9442278449E-02      0.3239119108E-01
          0                 2           2            50    2     1      -0.5518024484E-02      50    3    1        -0.9424161968E-03      0.3112532832E-02
          0                 3           2            50    2     1       0.4902969251E-03      50    3    1         0.8483011355E-04      0.2830321381E-03
          0                 4           1            50    2     1      -0.3887170088E-04      50    3    1        -0.6794740365E-05      0.2316264218E-04
          0                 5           1            50    2     1       0.2707023279E-05      50    3    1         0.4776231597E-06      0.1663233136E-05
          0                 6           1            50    2     1      -0.1625400053E-06      50    3    1        -0.2893953449E-07      0.1025661569E-06

    ------------------------------------------------
       NWT REQUIRED            6 OUTER ITERATIONS 
       AND A TOTAL OF          9 INNER ITERATIONS.
    ------------------------------------------------

 NO OUTPUT CONTROL FOR STRESS PERIOD   29   TIME STEP    7
 
 WELLS WITH REDUCED PUMPING FOR STRESS PERIOD    29 TIME STEP     7
   LAY   ROW   COL         APPL.Q          ACT.Q        GW-HEAD       CELL-BOT
     1     3    50  -0.669923E+00  -0.362123E+00   0.590303E+01   0.000000E+00
     1     5    55  -0.669923E+00  -0.288098E+00   0.503082E+01   0.000000E+00
 
 
 SOLVING FOR HEAD 
                                                   Max.-Head-Change                         Max.-Flux-Residual
  Residual-Control   Outer-Iter.   Inner-Iter.     Column Row Layer    Maximum-Head-Change  Column Row Layer    Maximum-Flux-Residual          L2-NORM 
          0                 1           2            50    2     1       0.5073131633E-01      50    2    1         0.6578347202E-02      0.3012878877E-01
          0                 2           2            50    2     1      -0.4996204477E-02      50    2    1        -0.6602962416E-03      0.2905723625E-02
          0                 3           2            50    2     1       0.4437634233E-03      50    2    1         0.5939993049E-04      0.2646534970E-03
          0                 4           1            50    2     1      -0.3517177339E-04      50    2    1        -0.4758156200E-05      0.2174832004E-04
          0                 5           1            50    2     1       0.2448923947E-05      50    2    1         0.3344923534E-06      0.1569451724E-05
          0                 6           1            50    2     1      -0.1470329517E-06      50    2    1        -0.2026892187E-07      0.9723287215E-07

    ------------------------------------------------
       NWT REQUIRED            6 OUTER ITERATIONS 
       AND A TOTAL OF          9 INNER ITERATIONS.
    ------------------------------------------------

 NO OUTPUT CONTROL FOR STRESS PERIOD   29   TIME STEP    8
 
 WELLS WITH REDUCED PUMPING FOR STRESS PERIOD    29 TIME STEP     8
   LAY   ROW   COL         APPL.Q          ACT.Q        GW-HEAD       CELL-BOT
     1     3    50  -0.669940E+00  -0.365266E+00   0.593806E+01   0.000000E+00
     1     5    55  -0.669940E+00  -0.290619E+00   0.505883E+01   0.000000E+00
 
 
 SOLVING FOR HEAD 
                                                   Max.-Head-Change                         Max.-Flux-Residual
  Residual-Control   Outer-Iter.   Inner-Iter.     Column Row Layer    Maximum-Head-Change  Column Row Layer    Maximum-Flux-Residual          L2-NORM 
          0                 1           2            50    2     1       0.4565796253E-01      50    2    1         0.5410127716E-02      0.2882893367E-01
          0                 2           2            50    2     1      -0.4496742332E-02      50    2    1        -0.5432122990E-03      0.2789533673E-02
          0                 3           2            50    2     1       0.3992929639E-03      50    2    1         0.4886562964E-04      0.2544354238E-03
          0                 4           1            50    2     1      -0.3164080206E-04      50    2    1        -0.3914330534E-05      0.2097975667E-04
          0                 5           1            50    2     1       0.2202790937E-05      50    2    1         0.2751724086E-06      0.1520480191E-05
          0                 6           1            50    2     1      -0.1322473877E-06      50    2    1        -0.1667436689E-07      0.9459618651E-07

    ------------------------------------------------
       NWT REQUIRED            6 OUTER ITERATIONS 
       AND A TOTAL OF          9 INNER ITERATIONS.
    ------------------------------------------------

 NO OUTPUT CONTROL FOR STRESS PERIOD   29   TIME STEP    9
 
 WELLS WITH REDUCED PUMPING FOR STRESS PERIOD    29 TIME STEP     9
   LAY   ROW   COL         APPL.Q          ACT.Q        GW-HEAD       CELL-BOT
     1     3    50  -0.669972E+00  -0.367694E+00   0.596504E+01   0.000000E+00
     1     5    55  -0.669972E+00  -0.292527E+00   0.507991E+01   0.000000E+00
 
 
 SOLVING FOR HEAD 
                                                   Max.-Head-Change                         Max.-Flux-Residual
  Residual-Control   Outer-Iter.   Inner-Iter.     Column Row Layer    Maximum-Head-Change  Column Row Layer    Maximum-Flux-Residual          L2-NORM 
          0                 1           2            50    2     1       0.4112947031E-01      50    2    1         0.4426419003E-02      0.2801876216E-01
          0                 2           2            50    2     1      -0.4049138756E-02      50    2    1        -0.4444019550E-03      0.2716186057E-02
          0                 3           2            50    2     1       0.3594264165E-03      50    2    1         0.3997750780E-04      0.2480576067E-03
          0                 4           1            50    2     1      -0.2847433592E-04      50    2    1        -0.3202352132E-05      0.2051529086E-04
          0                 5           1            50    2     1       0.1982008272E-05      50    2    1         0.2251212708E-06      0.1492612678E-05
          0                 6           1            50    2     1      -0.1189821012E-06      50    2    1        -0.1364146435E-07      0.9323275401E-07

    ------------------------------------------------
       NWT REQUIRED            6 OUTER ITERATIONS 
       AND A TOTAL OF          9 INNER ITERATIONS.
    ------------------------------------------------

 NO OUTPUT CONTROL FOR STRESS PERIOD   29   TIME STEP   10
 
 WELLS WITH REDUCED PUMPING FOR STRESS PERIOD    29 TIME STEP    10
   LAY   ROW   COL         APPL.Q          ACT.Q        GW-HEAD       CELL-BOT
     1     3    50  -0.669943E+00  -0.369628E+00   0.598686E+01   0.000000E+00
     1     5    55  -0.669943E+00  -0.294013E+00   0.509657E+01   0.000000E+00
 
 
 SOLVING FOR HEAD 
                                                   Max.-Head-Change                         Max.-Flux-Residual
  Residual-Control   Outer-Iter.   Inner-Iter.     Column Row Layer    Maximum-Head-Change  Column Row Layer    Maximum-Flux-Residual          L2-NORM 
          0                 1           2            50    1     1       0.3796562288E-01      50    2    1         0.3625035417E-02      0.2745193713E-01
          0                 2           2            50    1     1      -0.3759449242E-02      50    2    1        -0.3638539476E-03      0.2663889660E-02
          0                 3           2            50    1     1       0.3348932127E-03      50    2    1         0.3273257389E-04      0.2435306205E-03
          0                 4           1            50    1     1      -0.2656882782E-04      50    2    1        -0.2621996856E-05      0.2019604030E-04
          0                 5           1            50    1     1       0.1849733156E-05      50    2    1         0.1843230869E-06      0.1474799438E-05
          0                 6           1            50    1     1      -0.1110188217E-06      50    2    1        -0.1116925449E-07      0.9248114891E-07

    ------------------------------------------------
       NWT REQUIRED            6 OUTER ITERATIONS 
       AND A TOTAL OF          9 INNER ITERATIONS.
    ------------------------------------------------

 NO OUTPUT CONTROL FOR STRESS PERIOD   29   TIME STEP   11
 
 WELLS WITH REDUCED PUMPING FOR STRESS PERIOD    29 TIME STEP    11
   LAY   ROW   COL         APPL.Q          ACT.Q        GW-HEAD       CELL-BOT
     1     3    50  -0.670022E+00  -0.371282E+00   0.600491E+01   0.000000E+00
     1     5    55  -0.670022E+00  -0.295258E+00   0.511003E+01   0.000000E+00
 
 
 SOLVING FOR HEAD 
                                                   Max.-Head-Change                         Max.-Flux-Residual
  Residual-Control   Outer-Iter.   Inner-Iter.     Column Row Layer    Maximum-Head-Change  Column Row Layer    Maximum-Flux-Residual          L2-NORM 
          0                 1           2            50    1     1       0.3689905161E-01      50    1    1         0.3040316155E-02      0.2703586842E-01
          0                 2           2            50    1     1      -0.3654224251E-02      50    1    1        -0.3046044585E-03      0.2625222326E-02
          0                 3           2            50    1     1       0.3254722614E-03      50    1    1         0.2740862084E-04      0.2402614885E-03
          0                 4           1            50    1     1      -0.2581901557E-04      50    1    1        -0.2195477688E-05      0.1997889301E-04
          0                 5           1            50    1     1       0.1797104192E-05      50    1    1         0.1542281720E-06      0.1464134428E-05
          0                 6           1            50    1     1      -0.1078367046E-06      50    1    1        -0.9338689821E-08      0.9216239323E-07

    ------------------------------------------------
       NWT REQUIRED            6 OUTER ITERATIONS 
       AND A TOTAL OF          9 INNER ITERATIONS.
    ------------------------------------------------

 NO OUTPUT CONTROL FOR STRESS PERIOD   29   TIME STEP   12
 
 WELLS WITH REDUCED PUMPING FOR STRESS PERIOD    29 TIME STEP    12
   LAY   ROW   COL         APPL.Q          ACT.Q        GW-HEAD       CELL-BOT
     1     3    50  -0.670034E+00  -0.372681E+00   0.602050E+01   0.000000E+00
     1     5    55  -0.670034E+00  -0.296289E+00   0.512143E+01   0.000000E+00
 
 
 SOLVING FOR HEAD 
                                                   Max.-Head-Change                         Max.-Flux-Residual
  Residual-Control   Outer-Iter.   Inner-Iter.     Column Row Layer    Maximum-Head-Change  Column Row Layer    Maximum-Flux-Residual          L2-NORM 
          0                 1           2            50    1     1       0.3529574258E-01      50    1    1         0.2686244620E-02      0.2671173315E-01
          0                 2           2            50    1     1      -0.3495178167E-02      50    1    1        -0.2692085208E-03      0.2594200328E-02
          0                 3           2            50    1     1       0.3112511429E-03      50    1    1         0.2422288184E-04      0.2376247780E-03
          0                 4           1            50    1     1      -0.2468773032E-04      50    1    1        -0.1940300694E-05      0.1980901981E-04
          0                 5           1            50    1     1       0.1717787813E-05      50    1    1         0.1362572245E-06      0.1456627463E-05
          0                 6           1            50    1     1      -0.1030454159E-06      50    1    1        -0.8247699024E-08      0.9203684438E-07

    ------------------------------------------------
       NWT REQUIRED            6 OUTER ITERATIONS 
       AND A TOTAL OF          9 INNER ITERATIONS.
    ------------------------------------------------

 NO OUTPUT CONTROL FOR STRESS PERIOD   29   TIME STEP   13
 
 WELLS WITH REDUCED PUMPING FOR STRESS PERIOD    29 TIME STEP    13
   LAY   ROW   COL         APPL.Q          ACT.Q        GW-HEAD       CELL-BOT
     1     3    50  -0.670034E+00  -0.373912E+00   0.603430E+01   0.000000E+00
     1     5    55  -0.670034E+00  -0.297179E+00   0.513131E+01   0.000000E+00
 
 
 SOLVING FOR HEAD 
                                                   Max.-Head-Change                         Max.-Flux-Residual
  Residual-Control   Outer-Iter.   Inner-Iter.     Column Row Layer    Maximum-Head-Change  Column Row Layer    Maximum-Flux-Residual          L2-NORM 
          0                 1           2            50    1     1       0.3332055170E-01      50    1    1         0.2335945046E-02      0.2644809424E-01
          0                 2           2            50    1     1      -0.3298774185E-02      50    1    1        -0.2341352552E-03      0.2569218463E-02
          0                 3           2            50    1     1       0.2936965322E-03      50    1    1         0.2106672360E-04      0.2355597522E-03
          0                 4           1            50    1     1      -0.2329134241E-04      50    1    1        -0.1687488826E-05      0.1968569271E-04
          0                 5           1            50    1     1       0.1619868587E-05      50    1    1         0.1184472497E-06      0.1452289459E-05
          0                 6           1            50    1     1      -0.9712903099E-07      50    1    1        -0.7166120364E-08      0.9209845465E-07

    ------------------------------------------------
       NWT REQUIRED            6 OUTER ITERATIONS 
       AND A TOTAL OF          9 INNER ITERATIONS.
    ------------------------------------------------

 NO OUTPUT CONTROL FOR STRESS PERIOD   29   TIME STEP   14
 
 WELLS WITH REDUCED PUMPING FOR STRESS PERIOD    29 TIME STEP    14
   LAY   ROW   COL         APPL.Q          ACT.Q        GW-HEAD       CELL-BOT
     1     3    50  -0.670014E+00  -0.375012E+00   0.604676E+01   0.000000E+00
     1     5    55  -0.670014E+00  -0.297958E+00   0.514007E+01   0.000000E+00
 
 
 SOLVING FOR HEAD 
                                                   Max.-Head-Change                         Max.-Flux-Residual
  Residual-Control   Outer-Iter.   Inner-Iter.     Column Row Layer    Maximum-Head-Change  Column Row Layer    Maximum-Flux-Residual          L2-NORM 
          0                 1           2            50    1     1       0.3110762028E-01      50    1    1         0.2004793387E-02      0.2622751114E-01
          0                 2           2            50    1     1      -0.3078366757E-02      50    1    1        -0.2009483219E-03      0.2547671668E-02
          0                 3           2            50    1     1       0.2739954882E-03      50    1    1         0.1808061591E-04      0.2337895317E-03
          0                 4           1            50    1     1      -0.2172403909E-04      50    1    1        -0.1448295774E-05      0.1958358119E-04
          0                 5           1            50    1     1       0.1509888718E-05      50    1    1         0.1015892770E-06      0.1449129066E-05
          0                 6           1            50    1     1      -0.9047916154E-07      34    4    1        -0.6809383279E-08      0.9221745706E-07

    ------------------------------------------------
       NWT REQUIRED            6 OUTER ITERATIONS 
       AND A TOTAL OF          9 INNER ITERATIONS.
    ------------------------------------------------

 NO OUTPUT CONTROL FOR STRESS PERIOD   29   TIME STEP   15
 
 WELLS WITH REDUCED PUMPING FOR STRESS PERIOD    29 TIME STEP    15
   LAY   ROW   COL         APPL.Q          ACT.Q        GW-HEAD       CELL-BOT
     1     3    50  -0.670014E+00  -0.376020E+00   0.605807E+01   0.000000E+00
     1     5    55  -0.670014E+00  -0.298659E+00   0.514785E+01   0.000000E+00
 
 
 SOLVING FOR HEAD 
                                                   Max.-Head-Change                         Max.-Flux-Residual
  Residual-Control   Outer-Iter.   Inner-Iter.     Column Row Layer    Maximum-Head-Change  Column Row Layer    Maximum-Flux-Residual          L2-NORM 
          0                 1           2            50    1     1       0.2876925000E-01      50    1    1         0.1701567350E-02      0.2604167741E-01
          0                 2           2            50    1     1      -0.2845113359E-02      50    1    1        -0.1705430056E-03      0.2529375874E-02
          0                 3           2            50    1     1       0.2531367021E-03      50    1    1         0.1534495992E-04      0.2322744959E-03
          0                 4           1            50    1     1      -0.2006403070E-04      50    1    1        -0.1229163054E-05      0.1949934469E-04
          0                 5           1            50    1     1       0.1393270386E-05      34    4    1         0.9526980804E-07      0.1446956641E-05
          0                 6           1            50    1     1      -0.8342023950E-07      34    4    1        -0.6767985283E-08      0.9238668523E-07

    ------------------------------------------------
       NWT REQUIRED            6 OUTER ITERATIONS 
       AND A TOTAL OF          9 INNER ITERATIONS.
    ------------------------------------------------

 NO OUTPUT CONTROL FOR STRESS PERIOD   29   TIME STEP   16
 
 WELLS WITH REDUCED PUMPING FOR STRESS PERIOD    29 TIME STEP    16
   LAY   ROW   COL         APPL.Q          ACT.Q        GW-HEAD       CELL-BOT
     1     3    50  -0.670014E+00  -0.376951E+00   0.606852E+01   0.000000E+00
     1     5    55  -0.670014E+00  -0.299294E+00   0.515490E+01   0.000000E+00
 
 
 SOLVING FOR HEAD 
                                                   Max.-Head-Change                         Max.-Flux-Residual
  Residual-Control   Outer-Iter.   Inner-Iter.     Column Row Layer    Maximum-Head-Change  Column Row Layer    Maximum-Flux-Residual          L2-NORM 
          0                 1           2             1    1     1      -0.2890670270E-01      50    1    1         0.1430688163E-02      0.2587614175E-01
          0                 2           2             1    1     1       0.2716180509E-02      50    1    1        -0.1433744881E-03      0.2513787102E-02
          0                 3           2            50    1     1       0.2318776949E-03      50    1    1         0.1290059811E-04      0.2310299105E-03
          0                 4           1            50    1     1      -0.1837213523E-04      70    4    1        -0.1114815526E-05      0.1943579004E-04
          0                 5           1            50    1     1       0.1274232096E-05      70    4    1         0.9816683644E-07      0.1445829433E-05
          0                 6           1            50    1     1      -0.7620329648E-07      34    4    1        -0.6904500083E-08      0.9259317938E-07

    ------------------------------------------------
       NWT REQUIRED            6 OUTER ITERATIONS 
       AND A TOTAL OF          9 INNER ITERATIONS.
    ------------------------------------------------

 NO OUTPUT CONTROL FOR STRESS PERIOD   29   TIME STEP   17
 
 WELLS WITH REDUCED PUMPING FOR STRESS PERIOD    29 TIME STEP    17
   LAY   ROW   COL         APPL.Q          ACT.Q        GW-HEAD       CELL-BOT
     1     3    50  -0.670029E+00  -0.377814E+00   0.607811E+01   0.000000E+00
     1     5    55  -0.670029E+00  -0.299872E+00   0.516124E+01   0.000000E+00
 
 
 SOLVING FOR HEAD 
                                                   Max.-Head-Change                         Max.-Flux-Residual
  Residual-Control   Outer-Iter.   Inner-Iter.     Column Row Layer    Maximum-Head-Change  Column Row Layer    Maximum-Flux-Residual          L2-NORM 
          0                 1           2             1    1     1      -0.3177993839E-01       1    7    1        -0.1312841638E-02      0.2572713726E-01
          0                 2           2             1    1     1       0.2979870449E-02       1    7    1         0.1312817813E-03      0.2499261799E-02
          0                 3           2             1    1     1      -0.2516410284E-03       1    1    1        -0.1181561722E-04      0.2298425309E-03
          0                 4           1             1    1     1       0.1892806632E-04      36    4    1        -0.1095781354E-05      0.1937375108E-04
          0                 5           1             1    1     1      -0.1246552749E-05      36    4    1         0.9834937131E-07      0.1444279872E-05
          0                 6           1            51    1     1      -0.7176213998E-07      34    4    1        -0.7118844181E-08      0.9274413077E-07

    ------------------------------------------------
       NWT REQUIRED            6 OUTER ITERATIONS 
       AND A TOTAL OF          9 INNER ITERATIONS.
    ------------------------------------------------

 NO OUTPUT CONTROL FOR STRESS PERIOD   29   TIME STEP   18
 
 WELLS WITH REDUCED PUMPING FOR STRESS PERIOD    29 TIME STEP    18
   LAY   ROW   COL         APPL.Q          ACT.Q        GW-HEAD       CELL-BOT
     1     3    50  -0.670022E+00  -0.378599E+00   0.608697E+01   0.000000E+00
     1     5    55  -0.670022E+00  -0.300383E+00   0.516694E+01   0.000000E+00
 
 
 SOLVING FOR HEAD 
                                                   Max.-Head-Change                         Max.-Flux-Residual
  Residual-Control   Outer-Iter.   Inner-Iter.     Column Row Layer    Maximum-Head-Change  Column Row Layer    Maximum-Flux-Residual          L2-NORM 
          0                 1           2             1    1     1      -0.3493755406E-01       1    7    1        -0.1312358884E-02      0.2559558646E-01
          0                 2           2             1    1     1       0.3269312439E-02       1    7    1         0.1312331722E-03      0.2486203896E-02
          0                 3           2             1    1     1      -0.2753984625E-03       1    7    1        -0.1181127744E-04      0.2287024062E-03
          0                 4           1             1    1     1       0.2065107956E-04      37    4    1        -0.1113620963E-05      0.1930835420E-04
          0                 5           1             1    1     1      -0.1352822059E-05      37    4    1         0.9870229611E-07      0.1441763076E-05
          0                 6           1             1    1     1       0.7651789530E-07       2    4    1        -0.7055820817E-08      0.9280361742E-07

    ------------------------------------------------
       NWT REQUIRED            6 OUTER ITERATIONS 
       AND A TOTAL OF          9 INNER ITERATIONS.
    ------------------------------------------------

 NO OUTPUT CONTROL FOR STRESS PERIOD   29   TIME STEP   19
 
 WELLS WITH REDUCED PUMPING FOR STRESS PERIOD    29 TIME STEP    19
   LAY   ROW   COL         APPL.Q          ACT.Q        GW-HEAD       CELL-BOT
     1     3    50  -0.669985E+00  -0.379313E+00   0.609522E+01   0.000000E+00
     1     5    55  -0.669985E+00  -0.300831E+00   0.517210E+01   0.000000E+00
 
 
 SOLVING FOR HEAD 
                                                   Max.-Head-Change                         Max.-Flux-Residual
  Residual-Control   Outer-Iter.   Inner-Iter.     Column Row Layer    Maximum-Head-Change  Column Row Layer    Maximum-Flux-Residual          L2-NORM 
          0                 1           2             1    1     1      -0.3840741965E-01       1    7    1        -0.1311821087E-02      0.2547342394E-01
          0                 2           2             1    1     1       0.3587037485E-02       1    1    1         0.1311790200E-03      0.2474318856E-02
          0                 3           2             1    1     1      -0.3014370686E-03       1    7    1        -0.1180644274E-04      0.2277164259E-03
          0                 4           1             1    1     1       0.2253425511E-04      38    4    1        -0.1093786908E-05      0.1925524772E-04
          0                 5           1             1    1     1      -0.1467410406E-05      35    4    1         0.9898453612E-07      0.1439355880E-05
          0                 6           1             1    1     1       0.8245114422E-07      35    4    1        -0.7175401606E-08      0.9281351534E-07

    ------------------------------------------------
       NWT REQUIRED            6 OUTER ITERATIONS 
       AND A TOTAL OF          9 INNER ITERATIONS.
    ------------------------------------------------

 NO OUTPUT CONTROL FOR STRESS PERIOD   29   TIME STEP   20
 
 WELLS WITH REDUCED PUMPING FOR STRESS PERIOD    29 TIME STEP    20
   LAY   ROW   COL         APPL.Q          ACT.Q        GW-HEAD       CELL-BOT
     1     3    50  -0.669980E+00  -0.379976E+00   0.610270E+01   0.000000E+00
     1     5    55  -0.669980E+00  -0.301235E+00   0.517661E+01   0.000000E+00
 
 
 SOLVING FOR HEAD 
                                                   Max.-Head-Change                         Max.-Flux-Residual
  Residual-Control   Outer-Iter.   Inner-Iter.     Column Row Layer    Maximum-Head-Change  Column Row Layer    Maximum-Flux-Residual          L2-NORM 
          0                 1           2             1    1     1      -0.4222006747E-01       1    7    1        -0.1311222551E-02      0.2535649092E-01
          0                 2           2             1    1     1       0.3935818515E-02       1    1    1         0.1311187510E-03      0.2463167490E-02
          0                 3           2             1    1     1      -0.3299812161E-03       1    7    1        -0.1180106183E-04      0.2268348745E-03
          0                 4           1             1    1     1       0.2459289962E-04      67    4    1        -0.1097066207E-05      0.1921422906E-04
          0                 5           1             1    1     1      -0.1590584716E-05      70    4    1         0.1009096442E-06      0.1437184731E-05
          0                 6           1             1    1     1       0.8869921785E-07      70    4    1        -0.7367481736E-08      0.9278651103E-07

    ------------------------------------------------
       NWT REQUIRED            6 OUTER ITERATIONS 
       AND A TOTAL OF          9 INNER ITERATIONS.
    ------------------------------------------------

 NO OUTPUT CONTROL FOR STRESS PERIOD   29   TIME STEP   21
 
 WELLS WITH REDUCED PUMPING FOR STRESS PERIOD    29 TIME STEP    21
   LAY   ROW   COL         APPL.Q          ACT.Q        GW-HEAD       CELL-BOT
     1     3    50  -0.670000E+00  -0.380585E+00   0.610941E+01   0.000000E+00
     1     5    55  -0.670000E+00  -0.301590E+00   0.518044E+01   0.000000E+00
 
 
 SOLVING FOR HEAD 
                                                   Max.-Head-Change                         Max.-Flux-Residual
  Residual-Control   Outer-Iter.   Inner-Iter.     Column Row Layer    Maximum-Head-Change  Column Row Layer    Maximum-Flux-Residual          L2-NORM 
          0                 1           2             1    1     1      -0.4640892784E-01       1    7    1        -0.1310556962E-02      0.2524668963E-01
          0                 2           2             1    1     1       0.4318690635E-02       1    1    1         0.1310517291E-03      0.2452462823E-02
          0                 3           2             1    1     1      -0.3612764644E-03       1    7    1        -0.1179507791E-04      0.2259594781E-03
          0                 4           1             1    1     1       0.2684358041E-04      66    4    1        -0.1096966527E-05      0.1917001318E-04
          0                 5           1             1    1     1      -0.1722423303E-05      70    4    1         0.1028003940E-06      0.1433676578E-05
          0                 6           1             1    1     1       0.9521121614E-07      70    4    1        -0.7551373749E-08      0.9260769883E-07

    ------------------------------------------------
       NWT REQUIRED            6 OUTER ITERATIONS 
       AND A TOTAL OF          9 INNER ITERATIONS.
    ------------------------------------------------

 NO OUTPUT CONTROL FOR STRESS PERIOD   29   TIME STEP   22
 
 WELLS WITH REDUCED PUMPING FOR STRESS PERIOD    29 TIME STEP    22
   LAY   ROW   COL         APPL.Q          ACT.Q        GW-HEAD       CELL-BOT
     1     3    50  -0.669995E+00  -0.381125E+00   0.611551E+01   0.000000E+00
     1     5    55  -0.669995E+00  -0.301886E+00   0.518376E+01   0.000000E+00
 
 
 SOLVING FOR HEAD 
                                                   Max.-Head-Change                         Max.-Flux-Residual
  Residual-Control   Outer-Iter.   Inner-Iter.     Column Row Layer    Maximum-Head-Change  Column Row Layer    Maximum-Flux-Residual          L2-NORM 
          0                 1           2             1    1     1      -0.5101058323E-01       1    7    1        -0.1309817319E-02      0.2520490756E-01
          0                 2           2             1    1     1       0.4738971410E-02       1    1    1         0.1309772495E-03      0.2449869793E-02
          0                 3           2             1    1     1      -0.3955910870E-03       1    7    1        -0.1178842797E-04      0.2258381568E-03
          0                 4           1             1    1     1       0.2930408291E-04      35    4    1        -0.1098341199E-05      0.1918094252E-04
          0                 5           1             1    1     1      -0.1862676362E-05      70    4    1         0.1045344691E-06      0.1432176948E-05
          0                 6           1             1    1     1       0.1019081155E-06      70    4    1        -0.7723171436E-08      0.9243172499E-07

    ------------------------------------------------
       NWT REQUIRED            6 OUTER ITERATIONS 
       AND A TOTAL OF          9 INNER ITERATIONS.
    ------------------------------------------------

 NO OUTPUT CONTROL FOR STRESS PERIOD   29   TIME STEP   23
 
 WELLS WITH REDUCED PUMPING FOR STRESS PERIOD    29 TIME STEP    23
   LAY   ROW   COL         APPL.Q          ACT.Q        GW-HEAD       CELL-BOT
     1     3    50  -0.670012E+00  -0.381612E+00   0.612088E+01   0.000000E+00
     1     5    55  -0.670012E+00  -0.302137E+00   0.518645E+01   0.000000E+00
 
 
 SOLVING FOR HEAD 
                                                   Max.-Head-Change                         Max.-Flux-Residual
  Residual-Control   Outer-Iter.   Inner-Iter.     Column Row Layer    Maximum-Head-Change  Column Row Layer    Maximum-Flux-Residual          L2-NORM 
          0                 1           3            18    7     1      -0.5469161451E-01       1    7    1        -0.1308995863E-02      0.2483473281E-01
          0                 2           2            19    7     1       0.5069380656E-02       1    7    1         0.1308666449E-03      0.2441154236E-02
          0                 3           2            19    7     1      -0.4225431709E-03       1    7    1        -0.1177880426E-04      0.2278458428E-03
          0                 4           1            20    7     1       0.3125229257E-04       7    4    1        -0.1353587326E-05      0.1954566433E-04
          0                 5           1            21    7     1      -0.1959646881E-05       7    4    1         0.1269067482E-06      0.1463748044E-05
          0                 6           1            23    7     1       0.1060616093E-06       7    4    1        -0.9252975275E-08      0.9449833268E-07

    ------------------------------------------------
       NWT REQUIRED            6 OUTER ITERATIONS 
       AND A TOTAL OF         10 INNER ITERATIONS.
    ------------------------------------------------

 NO OUTPUT CONTROL FOR STRESS PERIOD   29   TIME STEP   24
 
 WELLS WITH REDUCED PUMPING FOR STRESS PERIOD    29 TIME STEP    24
   LAY   ROW   COL         APPL.Q          ACT.Q        GW-HEAD       CELL-BOT
     1     3    50  -0.669997E+00  -0.382029E+00   0.612567E+01   0.000000E+00
     1     5    55  -0.669997E+00  -0.302330E+00   0.518867E+01   0.000000E+00
 
 
 SOLVING FOR HEAD 
                                                   Max.-Head-Change                         Max.-Flux-Residual
  Residual-Control   Outer-Iter.   Inner-Iter.     Column Row Layer    Maximum-Head-Change  Column Row Layer    Maximum-Flux-Residual          L2-NORM 
          0                 1           3            26    7     1      -0.5778074866E-01      18    7    1        -0.1276302930E-02      0.2411043984E-01
          0                 2           2            26    7     1       0.5344215341E-02      18    7    1         0.1275498794E-03      0.2399427677E-02
          0                 3           2            26    7     1      -0.4443149940E-03      18    4    1         0.1395518369E-04      0.2262388972E-03
          0                 4           1            27    7     1       0.3276402571E-04      18    4    1        -0.1544381270E-05      0.1953111061E-04
          0                 5           1            27    7     1      -0.2056505128E-05      18    4    1         0.1362077455E-06      0.1461695602E-05
          0                 6           1            73    7     1       0.1136284623E-06      18    4    1        -0.9639929743E-08      0.9419683649E-07

    ------------------------------------------------
       NWT REQUIRED            6 OUTER ITERATIONS 
       AND A TOTAL OF         10 INNER ITERATIONS.
    ------------------------------------------------

 NO OUTPUT CONTROL FOR STRESS PERIOD   29   TIME STEP   25
 
 WELLS WITH REDUCED PUMPING FOR STRESS PERIOD    29 TIME STEP    25
   LAY   ROW   COL         APPL.Q          ACT.Q        GW-HEAD       CELL-BOT
     1     3    50  -0.670007E+00  -0.382392E+00   0.612968E+01   0.000000E+00
     1     5    55  -0.670007E+00  -0.302476E+00   0.519024E+01   0.000000E+00
 
 
 SOLVING FOR HEAD 
                                                   Max.-Head-Change                         Max.-Flux-Residual
  Residual-Control   Outer-Iter.   Inner-Iter.     Column Row Layer    Maximum-Head-Change  Column Row Layer    Maximum-Flux-Residual          L2-NORM 
          0                 1           3            30    7     1      -0.6029815332E-01      25    1    1        -0.1226094681E-02      0.2319343958E-01
          0                 2           2            31    7     1       0.5545107675E-02      25    1    1         0.1225213836E-03      0.2287047731E-02
          0                 3           2            31    7     1      -0.4593184234E-03      25    4    1         0.1387546832E-04      0.2150666483E-03
          0                 4           1            72    7     1       0.3384307561E-04      25    4    1        -0.1519132407E-05      0.1860987241E-04
          0                 5           1            71    7     1      -0.2185582921E-05      25    4    1         0.1298815064E-06      0.1390645178E-05
          0                 6           1            71    7     1       0.1223391929E-06      26    4    1        -0.9165344039E-08      0.8965633234E-07

    ------------------------------------------------
       NWT REQUIRED            6 OUTER ITERATIONS 
       AND A TOTAL OF         10 INNER ITERATIONS.
    ------------------------------------------------

 NO OUTPUT CONTROL FOR STRESS PERIOD   29   TIME STEP   26
 
 WELLS WITH REDUCED PUMPING FOR STRESS PERIOD    29 TIME STEP    26
   LAY   ROW   COL         APPL.Q          ACT.Q        GW-HEAD       CELL-BOT
     1     3    50  -0.670004E+00  -0.382690E+00   0.613306E+01   0.000000E+00
     1     5    55  -0.670004E+00  -0.302566E+00   0.519126E+01   0.000000E+00
 
 
 SOLVING FOR HEAD 
                                                   Max.-Head-Change                         Max.-Flux-Residual
  Residual-Control   Outer-Iter.   Inner-Iter.     Column Row Layer    Maximum-Head-Change  Column Row Layer    Maximum-Flux-Residual          L2-NORM 
          0                 1           3             5    1     1      -0.6515226143E-01      30    7    1        -0.1163731436E-02      0.2258855241E-01
          0                 2           2             5    1     1       0.5938364390E-02      30    1    1         0.1162781140E-03      0.2222837935E-02
          0                 3           2             5    1     1      -0.4856413475E-03      30    4    1         0.1387169390E-04      0.2092370247E-03
          0                 4           1            70    7     1       0.3564287573E-04      30    4    1        -0.1515609299E-05      0.1816104759E-04
          0                 5           1            70    7     1      -0.2275844827E-05      30    4    1         0.1324443133E-06      0.1351514034E-05
          0                 6           1            70    7     1       0.1259797057E-06      30    4    1        -0.9342205232E-08      0.8695986250E-07

    ------------------------------------------------
       NWT REQUIRED            6 OUTER ITERATIONS 
       AND A TOTAL OF         10 INNER ITERATIONS.
    ------------------------------------------------

 NO OUTPUT CONTROL FOR STRESS PERIOD   29   TIME STEP   27
 
 WELLS WITH REDUCED PUMPING FOR STRESS PERIOD    29 TIME STEP    27
   LAY   ROW   COL         APPL.Q          ACT.Q        GW-HEAD       CELL-BOT
     1     3    50  -0.670001E+00  -0.382920E+00   0.613566E+01   0.000000E+00
     1     5    55  -0.670001E+00  -0.302601E+00   0.519166E+01   0.000000E+00
 
 
 SOLVING FOR HEAD 
                                                   Max.-Head-Change                         Max.-Flux-Residual
  Residual-Control   Outer-Iter.   Inner-Iter.     Column Row Layer    Maximum-Head-Change  Column Row Layer    Maximum-Flux-Residual          L2-NORM 
          0                 1           3             4    1     1      -0.7155369417E-01       5    7    1        -0.1143778738E-02      0.2207915651E-01
          0                 2           2             4    1     1       0.6511646386E-02       5    7    1         0.1143700600E-03      0.2171442087E-02
          0                 3           2             4    1     1      -0.5314333850E-03      35    4    1         0.1427204964E-04      0.2046439132E-03
          0                 4           1             4    1     1       0.3822111661E-04      35    4    1        -0.1541259591E-05      0.1780875591E-04
          0                 5           1            67    1     1      -0.2301749832E-05      70    4    1         0.1274685300E-06      0.1316333997E-05
          0                 6           1            67    1     1       0.1274965219E-06      70    4    1        -0.9030200587E-08      0.8439364712E-07

    ------------------------------------------------
       NWT REQUIRED            6 OUTER ITERATIONS 
       AND A TOTAL OF         10 INNER ITERATIONS.
    ------------------------------------------------

 NO OUTPUT CONTROL FOR STRESS PERIOD   29   TIME STEP   28
 
 WELLS WITH REDUCED PUMPING FOR STRESS PERIOD    29 TIME STEP    28
   LAY   ROW   COL         APPL.Q          ACT.Q        GW-HEAD       CELL-BOT
     1     3    50  -0.669988E+00  -0.383076E+00   0.613749E+01   0.000000E+00
     1     5    55  -0.669988E+00  -0.302574E+00   0.519142E+01   0.000000E+00
 
 
 SOLVING FOR HEAD 
                                                   Max.-Head-Change                         Max.-Flux-Residual
  Residual-Control   Outer-Iter.   Inner-Iter.     Column Row Layer    Maximum-Head-Change  Column Row Layer    Maximum-Flux-Residual          L2-NORM 
          0                 1           3             3    1     1      -0.7860540641E-01       4    1    1        -0.1142110398E-02      0.2163858275E-01
          0                 2           2             4    1     1       0.7143304723E-02       4    1    1         0.1142026720E-03      0.2125889313E-02
          0                 3           2             4    1     1      -0.5818806389E-03      67    4    1         0.1487372957E-04      0.2004527708E-03
          0                 4           1             3    1     1       0.4167356412E-04      67    4    1        -0.1574484475E-05      0.1747390432E-04
          0                 5           1             1    1     1      -0.2313260828E-05      38    4    1         0.1307094113E-06      0.1279426224E-05
          0                 6           1            65    1     1       0.1262343927E-06      68    4    1        -0.9152335778E-08      0.8166603651E-07

    ------------------------------------------------
       NWT REQUIRED            6 OUTER ITERATIONS 
       AND A TOTAL OF         10 INNER ITERATIONS.
    ------------------------------------------------

 NO OUTPUT CONTROL FOR STRESS PERIOD   29   TIME STEP   29
 
 WELLS WITH REDUCED PUMPING FOR STRESS PERIOD    29 TIME STEP    29
   LAY   ROW   COL         APPL.Q          ACT.Q        GW-HEAD       CELL-BOT
     1     3    50  -0.670007E+00  -0.383195E+00   0.613871E+01   0.000000E+00
     1     5    55  -0.670007E+00  -0.302519E+00   0.519071E+01   0.000000E+00
 
 
 SOLVING FOR HEAD 
                                                   Max.-Head-Change                         Max.-Flux-Residual
  Residual-Control   Outer-Iter.   Inner-Iter.     Column Row Layer    Maximum-Head-Change  Column Row Layer    Maximum-Flux-Residual          L2-NORM 
          0                 1           3             1    1     1      -0.8635768404E-01       3    7    1        -0.1140738797E-02      0.2126275480E-01
          0                 2           2             2    1     1       0.7837205775E-02       3    7    1         0.1140647190E-03      0.2084553495E-02
          0                 3           2             4    1     1      -0.6372092186E-03      64    4    1         0.1413180199E-04      0.1964635769E-03
          0                 4           1             3    1     1       0.4543015267E-04      64    4    1        -0.1454323592E-05      0.1714729107E-04
          0                 5           1             1    1     1      -0.2415603164E-05      64    4    1         0.1213340211E-06      0.1241282727E-05
          0                 6           1            71    7     1       0.1270273018E-06      64    4    1        -0.8337117663E-08      0.7888778540E-07

    ------------------------------------------------
       NWT REQUIRED            6 OUTER ITERATIONS 
       AND A TOTAL OF         10 INNER ITERATIONS.
    ------------------------------------------------

 NO OUTPUT CONTROL FOR STRESS PERIOD   29   TIME STEP   30
 
 WELLS WITH REDUCED PUMPING FOR STRESS PERIOD    29 TIME STEP    30
   LAY   ROW   COL         APPL.Q          ACT.Q        GW-HEAD       CELL-BOT
     1     3    50  -0.669996E+00  -0.383215E+00   0.613901E+01   0.000000E+00
     1     5    55  -0.669996E+00  -0.302383E+00   0.518926E+01   0.000000E+00
 



 STREAM LISTING     PERIOD     29   STEP       30

 LAYER ROW COL. STREAM  RCH.   FLOW INTO    STREAM     FLOW OUT OF   OVRLND.    DIRECT     STREAM      STREAM      STREAM     STREAM  STREAMBED   FLOW TO   CHNG. UNSAT. 
                SEG.NO.  NO.   STRM. RCH.    LOSS       STRM. RCH.   RUNOFF     PRECIP       ET         HEAD        DEPTH      WIDTH  CONDCTNC.   WAT. TAB.

   1    4    1     1     1    5.6800E+00  1.8915E-03   5.6781E+00  0.000E+00  0.000E+00  0.000E+00  1.41652E+02  1.802E+00  3.968E+00  8.217E-04  1.863E-03  2.814E-05
   1    4    2     1     2    5.6781E+00  1.8910E-03   5.6762E+00  0.000E+00  0.000E+00  0.000E+00  1.41352E+02  1.802E+00  3.968E+00  8.216E-04  1.863E-03  2.818E-05
   1    4    3     1     3    5.6762E+00  1.8905E-03   5.6743E+00  0.000E+00  0.000E+00  0.000E+00  1.41051E+02  1.801E+00  3.968E+00  8.215E-04  1.862E-03  2.821E-05
   1    4    4     1     4    5.6743E+00  1.8900E-03   5.6724E+00  0.000E+00  0.000E+00  0.000E+00  1.40751E+02  1.801E+00  3.967E+00  8.214E-04  1.862E-03  2.824E-05
   1    4    5     1     5    5.6724E+00  1.8895E-03   5.6705E+00  0.000E+00  0.000E+00  0.000E+00  1.40451E+02  1.801E+00  3.967E+00  8.213E-04  1.861E-03  2.826E-05
   1    4    6     1     6    5.6705E+00  1.8890E-03   5.6687E+00  0.000E+00  0.000E+00  0.000E+00  1.40150E+02  1.800E+00  3.967E+00  8.212E-04  1.861E-03  2.827E-05
   1    4    7     1     7    5.6687E+00  1.8885E-03   5.6668E+00  0.000E+00  0.000E+00  0.000E+00  1.39850E+02  1.800E+00  3.966E+00  8.211E-04  1.860E-03  2.826E-05
   1    4    8     1     8    5.6668E+00  1.8880E-03   5.6649E+00  0.000E+00  0.000E+00  0.000E+00  1.39550E+02  1.800E+00  3.966E+00  8.210E-04  1.860E-03  2.825E-05
   1    4    9     1     9    5.6649E+00  1.8876E-03   5.6630E+00  0.000E+00  0.000E+00  0.000E+00  1.39249E+02  1.800E+00  3.965E+00  8.209E-04  1.859E-03  2.822E-05
   1    4   10     1    10    5.6630E+00  1.8871E-03   5.6611E+00  0.000E+00  0.000E+00  0.000E+00  1.38949E+02  1.799E+00  3.965E+00  8.208E-04  1.859E-03  2.817E-05
   1    4   11     1    11    5.6611E+00  1.8866E-03   5.6592E+00  0.000E+00  0.000E+00  0.000E+00  1.38649E+02  1.799E+00  3.965E+00  8.207E-04  1.858E-03  2.811E-05
   1    4   12     1    12    5.6592E+00  1.8861E-03   5.6573E+00  0.000E+00  0.000E+00  0.000E+00  1.38349E+02  1.799E+00  3.964E+00  8.206E-04  1.858E-03  2.803E-05
   1    4   13     1    13    5.6573E+00  1.8856E-03   5.6554E+00  0.000E+00  0.000E+00  0.000E+00  1.38048E+02  1.798E+00  3.964E+00  8.205E-04  1.858E-03  2.793E-05
   1    4   14     1    14    5.6554E+00  1.8851E-03   5.6536E+00  0.000E+00  0.000E+00  0.000E+00  1.37748E+02  1.798E+00  3.964E+00  8.203E-04  1.857E-03  2.782E-05
   1    4   15     1    15    5.6536E+00  1.8846E-03   5.6517E+00  0.000E+00  0.000E+00  0.000E+00  1.37448E+02  1.798E+00  3.963E+00  8.202E-04  1.857E-03  2.769E-05
   1    4   16     1    16    5.6517E+00  1.8842E-03   5.6498E+00  0.000E+00  0.000E+00  0.000E+00  1.37147E+02  1.797E+00  3.963E+00  8.201E-04  1.857E-03  2.753E-05
   1    4   17     1    17    5.6498E+00  1.8837E-03   5.6479E+00  0.000E+00  0.000E+00  0.000E+00  1.36847E+02  1.797E+00  3.963E+00  8.200E-04  1.856E-03  2.736E-05
   1    4   18     1    18    5.6479E+00  1.8832E-03   5.6460E+00  0.000E+00  0.000E+00  0.000E+00  1.36547E+02  1.797E+00  3.962E+00  8.199E-04  1.856E-03  2.716E-05
   1    4   19     1    19    5.6460E+00  1.8827E-03   5.6441E+00  0.000E+00  0.000E+00  0.000E+00  1.36246E+02  1.796E+00  3.962E+00  8.198E-04  1.856E-03  2.693E-05
   1    4   20     1    20    5.6441E+00  1.8822E-03   5.6423E+00  0.000E+00  0.000E+00  0.000E+00  1.35946E+02  1.796E+00  3.961E+00  8.197E-04  1.856E-03  2.667E-05
   1    4   21     1    21    5.6423E+00  1.8817E-03   5.6404E+00  0.000E+00  0.000E+00  0.000E+00  1.35646E+02  1.796E+00  3.961E+00  8.196E-04  1.855E-03  2.639E-05
   1    4   22     1    22    5.6404E+00  1.8812E-03   5.6385E+00  0.000E+00  0.000E+00  0.000E+00  1.35345E+02  1.795E+00  3.961E+00  8.195E-04  1.855E-03  2.608E-05
   1    4   23     1    23    5.6385E+00  1.8808E-03   5.6366E+00  0.000E+00  0.000E+00  0.000E+00  1.35045E+02  1.795E+00  3.960E+00  8.194E-04  1.855E-03  2.573E-05
   1    4   24     1    24    5.6366E+00  1.8803E-03   5.6347E+00  0.000E+00  0.000E+00  0.000E+00  1.34745E+02  1.795E+00  3.960E+00  8.193E-04  1.855E-03  2.535E-05
   1    4   25     1    25    5.6347E+00  1.8798E-03   5.6329E+00  0.000E+00  0.000E+00  0.000E+00  1.34445E+02  1.795E+00  3.960E+00  8.192E-04  1.855E-03  2.492E-05
   1    4   26     1    26    5.6329E+00  1.8793E-03   5.6310E+00  0.000E+00  0.000E+00  0.000E+00  1.34144E+02  1.794E+00  3.959E+00  8.191E-04  1.855E-03  2.444E-05
   1    4   27     1    27    5.6310E+00  1.8788E-03   5.6291E+00  0.000E+00  0.000E+00  0.000E+00  1.33844E+02  1.794E+00  3.959E+00  8.190E-04  1.855E-03  2.392E-05
   1    4   28     1    28    5.6291E+00  1.8783E-03   5.6272E+00  0.000E+00  0.000E+00  0.000E+00  1.33544E+02  1.794E+00  3.958E+00  8.189E-04  1.855E-03  2.336E-05
   1    4   29     1    29    5.6272E+00  1.8779E-03   5.6253E+00  0.000E+00  0.000E+00  0.000E+00  1.33243E+02  1.793E+00  3.958E+00  8.188E-04  1.857E-03  2.122E-05
   1    4   30     1    30    5.6253E+00  1.8774E-03   5.6235E+00  0.000E+00  0.000E+00  0.000E+00  1.32943E+02  1.793E+00  3.958E+00  8.187E-04  1.885E-03 -7.453E-06
   1    4   31     1    31    5.6235E+00  1.8769E-03   5.6216E+00  0.000E+00  0.000E+00  0.000E+00  1.32643E+02  1.793E+00  3.957E+00  8.186E-04  1.885E-03 -8.280E-06
   1    4   32     1    32    5.6216E+00  1.8764E-03   5.6197E+00  0.000E+00  0.000E+00  0.000E+00  1.32342E+02  1.792E+00  3.957E+00  8.185E-04  1.886E-03 -9.192E-06
   1    4   33     1    33    5.6197E+00  1.8759E-03   5.6178E+00  0.000E+00  0.000E+00  0.000E+00  1.32042E+02  1.792E+00  3.957E+00  8.184E-04  1.886E-03 -1.020E-05
   1    4   34     1    34    5.6178E+00  1.8754E-03   5.6160E+00  0.000E+00  0.000E+00  0.000E+00  1.31742E+02  1.792E+00  3.956E+00  8.183E-04  1.888E-03 -1.228E-05
   1    4   35     1    35    5.6160E+00  1.8749E-03   5.6141E+00  0.000E+00  0.000E+00  0.000E+00  1.31441E+02  1.791E+00  3.956E+00  8.182E-04  1.889E-03 -1.377E-05
   1    4   36     1    36    5.6141E+00  1.8745E-03   5.6122E+00  0.000E+00  0.000E+00  0.000E+00  1.31141E+02  1.791E+00  3.955E+00  8.181E-04  1.890E-03 -1.554E-05
   1    4   37     1    37    5.6122E+00  1.8740E-03   5.6103E+00  0.000E+00  0.000E+00  0.000E+00  1.30841E+02  1.791E+00  3.955E+00  8.180E-04  1.955E-03 -8.105E-05
   1    4   38     1    38    5.6103E+00  1.8735E-03   5.6085E+00  0.000E+00  0.000E+00  0.000E+00  1.30541E+02  1.791E+00  3.955E+00  8.179E-04  1.957E-03 -8.368E-05
   1    4   39     1    39    5.6085E+00  1.8730E-03   5.6066E+00  0.000E+00  0.000E+00  0.000E+00  1.30240E+02  1.790E+00  3.954E+00  8.178E-04  1.961E-03 -8.788E-05
   1    4   40     1    40    5.6066E+00  1.8725E-03   5.6047E+00  0.000E+00  0.000E+00  0.000E+00  1.29940E+02  1.790E+00  3.954E+00  8.177E-04  1.966E-03 -9.300E-05
   1    4   41     1    41    5.6047E+00  1.8720E-03   5.6029E+00  0.000E+00  0.000E+00  0.000E+00  1.29640E+02  1.790E+00  3.954E+00  8.176E-04  1.970E-03 -9.829E-05
   1    4   42     1    42    5.6029E+00  1.8716E-03   5.6010E+00  0.000E+00  0.000E+00  0.000E+00  1.29339E+02  1.789E+00  3.953E+00  8.175E-04  1.771E-03  1.007E-04
   1    4   43     1    43    5.6010E+00  1.8711E-03   5.5991E+00  0.000E+00  0.000E+00  0.000E+00  1.29039E+02  1.789E+00  3.953E+00  8.174E-04  1.402E-03  4.693E-04
   1    4   44     1    44    5.5991E+00  1.8706E-03   5.5972E+00  0.000E+00  0.000E+00  0.000E+00  1.28739E+02  1.789E+00  3.953E+00  8.173E-04  1.000E-03  8.704E-04
   1    4   45     1    45    5.5972E+00  1.8701E-03   5.5954E+00  0.000E+00  0.000E+00  0.000E+00  1.28438E+02  1.788E+00  3.952E+00  8.172E-04  9.133E-04  9.568E-04
   1    4   46     1    46    5.5954E+00  1.8696E-03   5.5935E+00  0.000E+00  0.000E+00  0.000E+00  1.28138E+02  1.788E+00  3.952E+00  8.171E-04  9.193E-04  9.503E-04
   1    4   47     1    47    5.5935E+00  1.8691E-03   5.5916E+00  0.000E+00  0.000E+00  0.000E+00  1.27838E+02  1.788E+00  3.951E+00  8.170E-04  9.270E-04  9.421E-04
   1    4   48     1    48    5.5916E+00  1.8687E-03   5.5898E+00  0.000E+00  0.000E+00  0.000E+00  1.27537E+02  1.787E+00  3.951E+00  8.169E-04  8.487E-04  1.020E-03
   1    4   49     1    49    5.5898E+00  1.8682E-03   5.5879E+00  0.000E+00  0.000E+00  0.000E+00  1.27237E+02  1.787E+00  3.951E+00  8.168E-04  6.452E-04  1.223E-03
   1    4   50     1    50    5.5879E+00  1.8677E-03   5.5860E+00  0.000E+00  0.000E+00  0.000E+00  1.26937E+02  1.787E+00  3.950E+00  8.167E-04  7.028E-04  1.165E-03
   1    4   51     1    51    5.5860E+00  1.8672E-03   5.5842E+00  0.000E+00  0.000E+00  0.000E+00  1.26637E+02  1.787E+00  3.950E+00  8.166E-04  7.149E-04  1.152E-03
   1    4   52     1    52    5.5842E+00  1.8667E-03   5.5823E+00  0.000E+00  0.000E+00  0.000E+00  1.26336E+02  1.786E+00  3.950E+00  8.165E-04  7.204E-04  1.146E-03
   1    4   53     1    53    5.5823E+00  1.8663E-03   5.5804E+00  0.000E+00  0.000E+00  0.000E+00  1.26036E+02  1.786E+00  3.949E+00  8.164E-04  7.190E-04  1.147E-03
   1    4   54     1    54    5.5804E+00  1.8658E-03   5.5786E+00  0.000E+00  0.000E+00  0.000E+00  1.25736E+02  1.786E+00  3.949E+00  8.163E-04  7.112E-04  1.155E-03
   1    4   55     1    55    5.5786E+00  1.8653E-03   5.5767E+00  0.000E+00  0.000E+00  0.000E+00  1.25435E+02  1.785E+00  3.948E+00  8.162E-04  6.978E-04  1.168E-03
   1    4   56     1    56    5.5767E+00  1.8648E-03   5.5748E+00  0.000E+00  0.000E+00  0.000E+00  1.25135E+02  1.785E+00  3.948E+00  8.161E-04  6.863E-04  1.178E-03
   1    4   57     1    57    5.5748E+00  1.8643E-03   5.5730E+00  0.000E+00  0.000E+00  0.000E+00  1.24835E+02  1.785E+00  3.948E+00  8.160E-04  7.651E-04  1.099E-03
   1    4   58     1    58    5.5730E+00  1.8638E-03   5.5711E+00  0.000E+00  0.000E+00  0.000E+00  1.24534E+02  1.784E+00  3.947E+00  8.159E-04  9.163E-04  9.475E-04
   1    4   59     1    59    5.5711E+00  1.8634E-03   5.5692E+00  0.000E+00  0.000E+00  0.000E+00  1.24234E+02  1.784E+00  3.947E+00  8.158E-04  9.068E-04  9.566E-04
   1    4   60     1    60    5.5692E+00  1.8629E-03   5.5674E+00  0.000E+00  0.000E+00  0.000E+00  1.23934E+02  1.784E+00  3.947E+00  8.157E-04  8.996E-04  9.633E-04
   1    4   61     1    61    5.5674E+00  1.8624E-03   5.5655E+00  0.000E+00  0.000E+00  0.000E+00  1.23633E+02  1.783E+00  3.946E+00  8.156E-04  8.943E-04  9.681E-04
   1    4   62     1    62    5.5655E+00  1.8619E-03   5.5636E+00  0.000E+00  0.000E+00  0.000E+00  1.23333E+02  1.783E+00  3.946E+00  8.155E-04  1.187E-03  6.748E-04
   1    4   63     1    63    5.5636E+00  1.8614E-03   5.5618E+00  0.000E+00  0.000E+00  0.000E+00  1.23033E+02  1.783E+00  3.946E+00  8.154E-04  1.562E-03  2.992E-04
   1    4   64     1    64    5.5618E+00  1.8610E-03   5.5599E+00  0.000E+00  0.000E+00  0.000E+00  1.22733E+02  1.783E+00  3.945E+00  8.153E-04  1.911E-03 -5.051E-05
   1    4   65     1    65    5.5599E+00  1.8605E-03   5.5581E+00  0.000E+00  0.000E+00  0.000E+00  1.22432E+02  1.782E+00  3.945E+00  8.152E-04  1.946E-03 -8.523E-05
   1    4   66     1    66    5.5581E+00  1.8600E-03   5.5562E+00  0.000E+00  0.000E+00  0.000E+00  1.22132E+02  1.782E+00  3.944E+00  8.151E-04  1.940E-03 -8.047E-05
   1    4   67     1    67    5.5562E+00  1.8595E-03   5.5543E+00  0.000E+00  0.000E+00  0.000E+00  1.21832E+02  1.782E+00  3.944E+00  8.150E-04  1.936E-03 -7.624E-05
   1    4   68     1    68    5.5543E+00  1.8590E-03   5.5525E+00  0.000E+00  0.000E+00  0.000E+00  1.21531E+02  1.781E+00  3.944E+00  8.149E-04  1.933E-03 -7.377E-05
   1    4   69     1    69    5.5525E+00  1.8586E-03   5.5506E+00  0.000E+00  0.000E+00  0.000E+00  1.21231E+02  1.781E+00  3.943E+00  8.148E-04  1.868E-03 -9.220E-06
   1    4   70     1    70    5.5506E+00  1.8581E-03   5.5488E+00  0.000E+00  0.000E+00  0.000E+00  1.20931E+02  1.781E+00  3.943E+00  8.147E-04  1.867E-03 -8.432E-06
   1    4   71     1    71    5.5488E+00  1.8576E-03   5.5469E+00  0.000E+00  0.000E+00  0.000E+00  1.20630E+02  1.780E+00  3.943E+00  8.146E-04  1.865E-03 -7.391E-06
   1    4   72     1    72    5.5469E+00  1.8571E-03   5.5451E+00  0.000E+00  0.000E+00  0.000E+00  1.20330E+02  1.780E+00  3.942E+00  8.145E-04  1.864E-03 -6.698E-06
   1    4   73     1    73    5.5451E+00  1.8566E-03   5.5432E+00  0.000E+00  0.000E+00  0.000E+00  1.20030E+02  1.780E+00  3.942E+00  8.144E-04  1.863E-03 -6.711E-06
   1    4   74     1    74    5.5432E+00  1.8562E-03   5.5413E+00  0.000E+00  0.000E+00  0.000E+00  1.19729E+02  1.779E+00  3.941E+00  8.143E-04  1.863E-03 -6.941E-06
   1    4   75     1    75    5.5413E+00  1.8557E-03   5.5395E+00  0.000E+00  0.000E+00  0.000E+00  1.19429E+02  1.779E+00  3.941E+00  8.142E-04  1.863E-03 -7.389E-06
   1    4   76     1    76    5.5395E+00  1.8552E-03   5.5376E+00  0.000E+00  0.000E+00  0.000E+00  1.19129E+02  1.779E+00  3.941E+00  8.141E-04  1.863E-03 -8.051E-06
   1    4   77     1    77    5.5376E+00  1.8547E-03   5.5358E+00  0.000E+00  0.000E+00  0.000E+00  1.18829E+02  1.779E+00  3.940E+00  8.140E-04  1.864E-03 -8.915E-06
   1    4   78     1    78    5.5358E+00  1.8542E-03   5.5339E+00  0.000E+00  0.000E+00  0.000E+00  1.18528E+02  1.778E+00  3.940E+00  8.139E-04  1.864E-03 -9.965E-06
   1    4   79     1    79    5.5339E+00  1.8538E-03   5.5321E+00  0.000E+00  0.000E+00  0.000E+00  1.18228E+02  1.778E+00  3.940E+00  8.138E-04  1.858E-03 -4.459E-06
   1    4   80     1    80    5.5321E+00  1.8533E-03   5.5302E+00  0.000E+00  0.000E+00  0.000E+00  1.17928E+02  1.778E+00  3.939E+00  8.137E-04  1.840E-03  1.349E-05
   1    4   81     1    81    5.5302E+00  1.8528E-03   5.5284E+00  0.000E+00  0.000E+00  0.000E+00  1.17627E+02  1.777E+00  3.939E+00  8.136E-04  1.841E-03  1.185E-05
   1    4   82     1    82    5.5284E+00  1.8523E-03   5.5265E+00  0.000E+00  0.000E+00  0.000E+00  1.17327E+02  1.777E+00  3.939E+00  8.135E-04  1.845E-03  7.821E-06
   1    4   83     1    83    5.5265E+00  1.8518E-03   5.5247E+00  0.000E+00  0.000E+00  0.000E+00  1.17027E+02  1.777E+00  3.938E+00  8.134E-04  1.846E-03  5.590E-06
   1    4   84     1    84    5.5247E+00  1.8514E-03   5.5228E+00  0.000E+00  0.000E+00  0.000E+00  1.16726E+02  1.776E+00  3.938E+00  8.133E-04  1.848E-03  3.170E-06
   1    4   85     1    85    5.5228E+00  1.8509E-03   5.5210E+00  0.000E+00  0.000E+00  0.000E+00  1.16426E+02  1.776E+00  3.937E+00  8.132E-04  1.850E-03  5.764E-07
   1    4   86     1    86    5.5210E+00  1.8504E-03   5.5191E+00  0.000E+00  0.000E+00  0.000E+00  1.16126E+02  1.776E+00  3.937E+00  8.131E-04  1.853E-03 -2.176E-06
   1    4   87     1    87    5.5191E+00  1.8499E-03   5.5173E+00  0.000E+00  0.000E+00  0.000E+00  1.15825E+02  1.775E+00  3.937E+00  8.130E-04  1.855E-03 -5.071E-06
   1    4   88     1    88    5.5173E+00  1.8495E-03   5.5154E+00  0.000E+00  0.000E+00  0.000E+00  1.15525E+02  1.775E+00  3.936E+00  8.129E-04  1.857E-03 -7.718E-06
   1    4   89     1    89    5.5154E+00  1.8490E-03   5.5136E+00  0.000E+00  0.000E+00  0.000E+00  1.15225E+02  1.775E+00  3.936E+00  8.128E-04  1.841E-03  8.193E-06
   1    4   90     1    90    5.5136E+00  1.8485E-03   5.5117E+00  0.000E+00  0.000E+00  0.000E+00  1.14925E+02  1.775E+00  3.936E+00  8.127E-04  1.843E-03  5.056E-06
   1    4   91     1    91    5.5117E+00  1.8480E-03   5.5099E+00  0.000E+00  0.000E+00  0.000E+00  1.14624E+02  1.774E+00  3.935E+00  8.126E-04  1.846E-03  1.899E-06
   1    4   92     1    92    5.5099E+00  1.8475E-03   5.5080E+00  0.000E+00  0.000E+00  0.000E+00  1.14324E+02  1.774E+00  3.935E+00  8.125E-04  1.849E-03 -1.260E-06
   1    4   93     1    93    5.5080E+00  1.8471E-03   5.5062E+00  0.000E+00  0.000E+00  0.000E+00  1.14024E+02  1.774E+00  3.934E+00  8.124E-04  1.851E-03 -4.377E-06
   1    4   94     1    94    5.5062E+00  1.8466E-03   5.5043E+00  0.000E+00  0.000E+00  0.000E+00  1.13723E+02  1.773E+00  3.934E+00  8.123E-04  1.854E-03 -7.402E-06
   1    4   95     1    95    5.5043E+00  1.8461E-03   5.5025E+00  0.000E+00  0.000E+00  0.000E+00  1.13423E+02  1.773E+00  3.934E+00  8.122E-04  1.856E-03 -1.029E-05
   1    4   96     1    96    5.5025E+00  1.8456E-03   5.5006E+00  0.000E+00  0.000E+00  0.000E+00  1.13123E+02  1.773E+00  3.933E+00  8.121E-04  1.859E-03 -1.300E-05
   1    4   97     1    97    5.5006E+00  1.8452E-03   5.4988E+00  0.000E+00  0.000E+00  0.000E+00  1.12822E+02  1.772E+00  3.933E+00  8.120E-04  1.861E-03 -1.551E-05
   1    4   98     1    98    5.4988E+00  1.8447E-03   5.4969E+00  0.000E+00  0.000E+00  0.000E+00  1.12522E+02  1.772E+00  3.933E+00  8.119E-04  1.863E-03 -1.783E-05
   1    4   99     1    99    5.4969E+00  1.8442E-03   5.4951E+00  0.000E+00  0.000E+00  0.000E+00  1.12222E+02  1.772E+00  3.932E+00  8.118E-04  1.864E-03 -1.999E-05
   1    4  100     1   100    5.4951E+00  1.8437E-03   5.4932E+00  0.000E+00  0.000E+00  0.000E+00  1.11921E+02  1.771E+00  3.932E+00  8.117E-04  1.866E-03 -2.207E-05



1
  VOLUMETRIC BUDGET FOR UNSATURATED ZONE BENEATH STREAMS AT END OF TIME STEP    30 STRESS PERIOD  29
  ------------------------------------------------------------------------------------------------

    CUMULATIVE VOLUMES             L**3    RATES FOR THIS TIME STEP         L**3/T
    ------------------                     ------------------------


          STREAM LOSS =     28238648.0000            STREAM LOSS =            0.1868
    CHANGE IN STORAGE =      1363491.8750      CHANGE IN STORAGE =        2.0291E-02
       RECHARGE TO GW =     26881958.0000         RECHARGE TO GW =            0.1665

             TOTAL IN =     28238648.0000               TOTAL IN =            0.1868

            TOTAL OUT =     28245450.0000              TOTAL OUT =            0.1868

             IN - OUT =        -6802.0000               IN - OUT =        2.9802E-08

  PERCENT DISCREPANCY =           -0.01      PERCENT DISCREPANCY =             0.00



1
  VOLUMETRIC BUDGET FOR ENTIRE MODEL AT END OF TIME STEP   30, STRESS PERIOD  29
  ------------------------------------------------------------------------------

     CUMULATIVE VOLUMES      L**3       RATES FOR THIS TIME STEP      L**3/T
     ------------------                 ------------------------

           IN:                                      IN:
           ---                                      ---
             STORAGE     =    97350032.0000               STORAGE     =           0.4971
       CONSTANT HEAD     =           0.0000         CONSTANT HEAD     =           0.0000
               WELLS     =           0.0000                 WELLS     =           0.0000
     HEAD DEP BOUNDS     =      151844.6406       HEAD DEP BOUNDS     =       2.8149E-02
      STREAM LEAKAGE     =    26881988.0000        STREAM LEAKAGE     =           0.1665

                TOTAL IN =   124383872.0000                  TOTAL IN =           0.6917

          OUT:                                     OUT:
          ----                                     ----
             STORAGE     =     3175407.7500               STORAGE     =       6.0632E-03
       CONSTANT HEAD     =           0.0000         CONSTANT HEAD     =           0.0000
               WELLS     =   104822640.0000                 WELLS     =           0.6856
     HEAD DEP BOUNDS     =    16385952.0000       HEAD DEP BOUNDS     =           0.0000
      STREAM LEAKAGE     =           0.0000        STREAM LEAKAGE     =           0.0000

               TOTAL OUT =   124384000.0000                 TOTAL OUT =           0.6917

                IN - OUT =        -128.0000                  IN - OUT =           0.0000

     PERCENT DISCREPANCY =          -0.00         PERCENT DISCREPANCY =           0.00






         TIME SUMMARY AT END OF TIME STEP   30 IN STRESS PERIOD   29
                    SECONDS     MINUTES      HOURS       DAYS        YEARS
                    -----------------------------------------------------------
   TIME STEP LENGTH 2.49961E+05  4166.0      69.434      2.8931     7.92080E-03
 STRESS PERIOD TIME 2.59200E+06  43200.      720.00      30.000     8.21355E-02
         TOTAL TIME 7.51680E+07 1.25280E+06  20880.      870.00      2.3819    
1
1
                            STRESS PERIOD NO.   30, LENGTH =   2592000.    
                            -----------------------------------------------

                              NUMBER OF TIME STEPS =    30

                               MULTIPLIER FOR DELT =     1.100

                            INITIAL TIME STEP SIZE =   15757.40    

 REUSING NON-PARAMETER WELLS FROM LAST STRESS PERIOD

      1 WELL 

 REUSING NON-PARAMETER GHB CELLS FROM LAST STRESS PERIOD

      7 GHB CELLS



 CLASSIFICATION & COUNT OF STREAM SEGMENTS BASED ON SOURCE OF INFLOW:

                HEADWATER     DIVERSION     RECEIVES TRIBUTARY FLOW
                ---------     ---------     -----------------------
                     1              0               0



                    INPUT DATA FOR EACH STREAM SEGMENT
 ---------------------------------------------------------------------------------------------

 SEGMENT    SEG.     INFLOW   OVERLAND   STREAM    STREAM   ICALC  OUTFLOW  DIVERSION PRIORITY
    NO.    LENGTH     RATE     RUNOFF      ET       PPT.    METH.  TO SEG.  FROM SEG.    NO.

      1  2.000E+04 7.710E+00 0.000E+00 0.000E+00 0.000E+00    2        0        0        0


         STREAMBED PROPERTIES AND STREAM DIMENSIONS

 SEGMENT     BED HYD. COND.      BED THICKNESS     ELEV.-TOP OF BED     WIDTH OF STREAM     DEPTH OF STREAM    STREAM ROUGHNESS
    No.     UPPER     LOWER     UPPER     LOWER     UPPER     LOWER     UPPER     LOWER     UPPER     LOWER   CHANNEL      BANK

     1  3.500E-07 3.500E-07                                                                                 3.000E-02 4.000E-02

  EIGHT POINT CROSS-SECTION DATA FOR SEGMENTS WITH ICALC = 2
    X VALUES X VALUES START FROM LEFT SIDE LOOKING DOWNSTREAM

     SEGMENT NO.        X1        X2        X3        X4        X5        X6        X7        X8
            1      0.000E+00 2.000E+00 4.000E+00 6.000E+00 8.000E+00 1.000E+01 1.200E+01 1.400E+01

    Z VALUES ARE RELATIVE TO STREAMBED ELEVATION

     SEGMENT NO.          Z1        Z2        Z3        Z4        Z5        Z6        Z7        Z8
            1      6.000E+00 4.500E+00 3.500E+00 0.000E+00 3.000E-01 3.500E+00 4.500E+00 6.000E+00



 
 SOLVING FOR HEAD 
                                                   Max.-Head-Change                         Max.-Flux-Residual
  Residual-Control   Outer-Iter.   Inner-Iter.     Column Row Layer    Maximum-Head-Change  Column Row Layer    Maximum-Flux-Residual          L2-NORM 
          0                 1           2            50    3     1       0.2894479821E+00      50    3    1         0.9128281431E-01      0.1181378156E+00
          0                 2           2            50    3     1      -0.2819368326E-01      50    3    1        -0.9041033634E-02      0.1178479677E-01
          0                 3           2            50    3     1       0.2512456391E-02      50    3    1         0.8149699155E-03      0.1062747044E-02
          0                 4           2            50    3     1      -0.1993138899E-03      50    3    1        -0.6526895639E-04      0.8518813174E-04
          0                 5           1            50    3     1       0.1388429551E-04      50    3    1         0.4588408639E-05      0.5991710491E-05
          0                 6           1            50    3     1      -0.8337129812E-06      50    3    1        -0.2780389844E-06      0.3631789615E-06

    ------------------------------------------------
       NWT REQUIRED            6 OUTER ITERATIONS 
       AND A TOTAL OF         10 INNER ITERATIONS.
    ------------------------------------------------

 NO OUTPUT CONTROL FOR STRESS PERIOD   30   TIME STEP    1
 
 WELLS WITH REDUCED PUMPING FOR STRESS PERIOD    30 TIME STEP     1
   LAY   ROW   COL         APPL.Q          ACT.Q        GW-HEAD       CELL-BOT
     1     3    50  -0.510409E+00  -0.309693E+00   0.640259E+01   0.000000E+00
     1     5    55  -0.510409E+00  -0.244843E+00   0.539974E+01   0.000000E+00
 
 
 SOLVING FOR HEAD 
                                                   Max.-Head-Change                         Max.-Flux-Residual
  Residual-Control   Outer-Iter.   Inner-Iter.     Column Row Layer    Maximum-Head-Change  Column Row Layer    Maximum-Flux-Residual          L2-NORM 
          0                 1           2            50    3     1       0.2090580857E+00      50    3    1         0.6041644976E-01      0.8047122968E-01
          0                 2           2            50    3     1      -0.2015762739E-01      50    3    1        -0.5987082861E-02      0.7993330414E-02
          0                 3           2            50    3     1       0.1790365779E-02      50    3    1         0.5395697465E-03      0.7218072630E-03
          0                 4           2            50    3     1      -0.1419320104E-03      50    3    1        -0.4321356601E-04      0.5792709329E-04
          0                 5           1            50    3     1       0.9886178166E-05      50    3    1         0.3037909817E-05      0.4077463667E-05
          0                 6           1            50    3     1      -0.5936371034E-06      50    3    1        -0.1840848365E-06      0.2472671956E-06

    ------------------------------------------------
       NWT REQUIRED            6 OUTER ITERATIONS 
       AND A TOTAL OF         10 INNER ITERATIONS.
    ------------------------------------------------

 NO OUTPUT CONTROL FOR STRESS PERIOD   30   TIME STEP    2
 
 WELLS WITH REDUCED PUMPING FOR STRESS PERIOD    30 TIME STEP     2
   LAY   ROW   COL         APPL.Q          ACT.Q        GW-HEAD       CELL-BOT
     1     3    50  -0.510084E+00  -0.322177E+00   0.659315E+01   0.000000E+00
     1     5    55  -0.510084E+00  -0.255237E+00   0.555282E+01   0.000000E+00
 
 
 SOLVING FOR HEAD 
                                                   Max.-Head-Change                         Max.-Flux-Residual
  Residual-Control   Outer-Iter.   Inner-Iter.     Column Row Layer    Maximum-Head-Change  Column Row Layer    Maximum-Flux-Residual          L2-NORM 
          0                 1           2            50    3     1       0.1505118117E+00      50    3    1         0.3967291298E-01      0.5618309840E-01
          0                 2           2            50    3     1      -0.1435736317E-01      50    3    1        -0.3936094355E-02      0.5533045224E-02
          0                 3           2            50    3     1       0.1269545691E-02      50    3    1         0.3546361503E-03      0.5005664201E-03
          0                 4           1            50    3     1      -0.1005337372E-03      50    3    1        -0.2840312834E-04      0.4026912847E-04
          0                 5           1            50    3     1       0.7001285174E-05      50    3    1         0.1996722392E-05      0.2839543543E-05
          0                 6           1            50    3     1      -0.4204036982E-06      50    3    1        -0.1209927440E-06      0.1723938708E-06

    ------------------------------------------------
       NWT REQUIRED            6 OUTER ITERATIONS 
       AND A TOTAL OF          9 INNER ITERATIONS.
    ------------------------------------------------

 NO OUTPUT CONTROL FOR STRESS PERIOD   30   TIME STEP    3
 
 WELLS WITH REDUCED PUMPING FOR STRESS PERIOD    30 TIME STEP     3
   LAY   ROW   COL         APPL.Q          ACT.Q        GW-HEAD       CELL-BOT
     1     3    50  -0.509934E+00  -0.331124E+00   0.673048E+01   0.000000E+00
     1     5    55  -0.509934E+00  -0.262759E+00   0.566309E+01   0.000000E+00
 
 
 SOLVING FOR HEAD 
                                                   Max.-Head-Change                         Max.-Flux-Residual
  Residual-Control   Outer-Iter.   Inner-Iter.     Column Row Layer    Maximum-Head-Change  Column Row Layer    Maximum-Flux-Residual          L2-NORM 
          0                 1           2            50    3     1       0.1081443470E+00      50    3    1         0.2584155746E-01      0.4112976627E-01
          0                 2           2            50    3     1      -0.1019375775E-01      50    3    1        -0.2566599535E-02      0.4004970122E-02
          0                 3           2            50    3     1       0.8963860970E-03      50    3    1         0.2311922440E-03      0.3633099426E-03
          0                 4           1            50    3     1      -0.7086896503E-04      50    3    1        -0.1851682181E-04      0.2935481997E-04
          0                 5           1            50    3     1       0.4933704405E-05      50    3    1         0.1301707897E-05      0.2077137182E-05
          0                 6           1            50    3     1      -0.2962432660E-06      50    3    1        -0.7887724723E-07      0.1264047515E-06

    ------------------------------------------------
       NWT REQUIRED            6 OUTER ITERATIONS 
       AND A TOTAL OF          9 INNER ITERATIONS.
    ------------------------------------------------

 NO OUTPUT CONTROL FOR STRESS PERIOD   30   TIME STEP    4
 
 WELLS WITH REDUCED PUMPING FOR STRESS PERIOD    30 TIME STEP     4
   LAY   ROW   COL         APPL.Q          ACT.Q        GW-HEAD       CELL-BOT
     1     3    50  -0.510070E+00  -0.337661E+00   0.682926E+01   0.000000E+00
     1     5    55  -0.510070E+00  -0.268254E+00   0.574185E+01   0.000000E+00
 
 
 SOLVING FOR HEAD 
                                                   Max.-Head-Change                         Max.-Flux-Residual
  Residual-Control   Outer-Iter.   Inner-Iter.     Column Row Layer    Maximum-Head-Change  Column Row Layer    Maximum-Flux-Residual          L2-NORM 
          0                 1           2            50    3     1       0.7887636133E-01      50    3    1         0.1697916804E-01      0.3255440507E-01
          0                 2           2            50    3     1      -0.7341607659E-02      50    3    1        -0.1687434650E-02      0.3142029658E-02
          0                 3           2            50    3     1       0.6414395773E-03      50    3    1         0.1519748003E-03      0.2860074963E-03
          0                 4           1            50    3     1      -0.5060161661E-04      50    3    1        -0.1217228112E-04      0.2324862484E-04
          0                 5           1            50    3     1       0.3520791278E-05      50    3    1         0.8556816927E-06      0.1653602594E-05
          0                 6           1            50    3     1      -0.2113896379E-06      50    3    1        -0.5184947099E-07      0.1010032115E-06

    ------------------------------------------------
       NWT REQUIRED            6 OUTER ITERATIONS 
       AND A TOTAL OF          9 INNER ITERATIONS.
    ------------------------------------------------

 NO OUTPUT CONTROL FOR STRESS PERIOD   30   TIME STEP    5
 
 WELLS WITH REDUCED PUMPING FOR STRESS PERIOD    30 TIME STEP     5
   LAY   ROW   COL         APPL.Q          ACT.Q        GW-HEAD       CELL-BOT
     1     3    50  -0.510035E+00  -0.342313E+00   0.690139E+01   0.000000E+00
     1     5    55  -0.510035E+00  -0.272141E+00   0.579861E+01   0.000000E+00
 
 
 SOLVING FOR HEAD 
                                                   Max.-Head-Change                         Max.-Flux-Residual
  Residual-Control   Outer-Iter.   Inner-Iter.     Column Row Layer    Maximum-Head-Change  Column Row Layer    Maximum-Flux-Residual          L2-NORM 
          0                 1           2            50    3     1       0.5864629535E-01      50    3    1         0.1129856174E-01      0.2784432378E-01
          0                 2           2            50    3     1      -0.5389298865E-02      50    3    1        -0.1123086781E-02      0.2678942707E-02
          0                 3           2            50    3     1       0.4675226130E-03      50    3    1         0.1011388939E-03      0.2447314818E-03
          0                 4           1            50    3     1      -0.3677888896E-04      50    3    1        -0.8100706736E-05      0.2002256007E-04
          0                 5           1            50    3     1       0.2556913387E-05      50    3    1         0.5694473060E-06      0.1432608324E-05
          0                 6           1            50    3     1      -0.1534959748E-06      50    3    1        -0.3450454977E-07      0.8789594869E-07

    ------------------------------------------------
       NWT REQUIRED            6 OUTER ITERATIONS 
       AND A TOTAL OF          9 INNER ITERATIONS.
    ------------------------------------------------

 NO OUTPUT CONTROL FOR STRESS PERIOD   30   TIME STEP    6
 
 WELLS WITH REDUCED PUMPING FOR STRESS PERIOD    30 TIME STEP     6
   LAY   ROW   COL         APPL.Q          ACT.Q        GW-HEAD       CELL-BOT
     1     3    50  -0.509971E+00  -0.345730E+00   0.695508E+01   0.000000E+00
     1     5    55  -0.509971E+00  -0.274958E+00   0.584009E+01   0.000000E+00
 
 
 SOLVING FOR HEAD 
                                                   Max.-Head-Change                         Max.-Flux-Residual
  Residual-Control   Outer-Iter.   Inner-Iter.     Column Row Layer    Maximum-Head-Change  Column Row Layer    Maximum-Flux-Residual          L2-NORM 
          0                 1           2            50    3     1       0.4460691247E-01      50    3    1         0.7636263823E-02      0.2528282442E-01
          0                 2           2            50    3     1      -0.4046181644E-02      50    3    1        -0.7589173594E-03      0.2435066538E-02
          0                 3           2            50    2     1       0.3519075763E-03      50    3    1         0.6834154437E-04      0.2231571921E-03
          0                 4           1            50    2     1      -0.2789320524E-04      50    3    1        -0.5473830907E-05      0.1836236601E-04
          0                 5           1            50    2     1       0.1942381966E-05      50    3    1         0.3847762960E-06      0.1321234391E-05
          0                 6           1            50    2     1      -0.1166271607E-06      50    3    1        -0.2331403709E-07      0.8142892012E-07

    ------------------------------------------------
       NWT REQUIRED            6 OUTER ITERATIONS 
       AND A TOTAL OF          9 INNER ITERATIONS.
    ------------------------------------------------

 NO OUTPUT CONTROL FOR STRESS PERIOD   30   TIME STEP    7
 
 WELLS WITH REDUCED PUMPING FOR STRESS PERIOD    30 TIME STEP     7
   LAY   ROW   COL         APPL.Q          ACT.Q        GW-HEAD       CELL-BOT
     1     3    50  -0.509941E+00  -0.348334E+00   0.699596E+01   0.000000E+00
     1     5    55  -0.509941E+00  -0.277064E+00   0.587096E+01   0.000000E+00
 
 
 SOLVING FOR HEAD 
                                                   Max.-Head-Change                         Max.-Flux-Residual
  Residual-Control   Outer-Iter.   Inner-Iter.     Column Row Layer    Maximum-Head-Change  Column Row Layer    Maximum-Flux-Residual          L2-NORM 
          0                 1           2            50    2     1       0.3752093005E-01      50    3    1         0.5263436382E-02      0.2384422297E-01
          0                 2           2            50    2     1      -0.3680838128E-02      50    3    1        -0.5228643122E-03      0.2302172417E-02
          0                 3           2            50    2     1       0.3267278089E-03      50    3    1         0.4708514050E-04      0.2114865084E-03
          0                 4           1            50    2     1      -0.2589101834E-04      50    3    1        -0.3771294478E-05      0.1748479769E-04
          0                 5           1            50    2     1       0.1802738123E-05      50    3    1         0.2650861255E-06      0.1264488134E-05
          0                 6           1            50    2     1      -0.1082380840E-06      50    3    1        -0.1606111200E-07      0.7827307035E-07

    ------------------------------------------------
       NWT REQUIRED            6 OUTER ITERATIONS 
       AND A TOTAL OF          9 INNER ITERATIONS.
    ------------------------------------------------

 NO OUTPUT CONTROL FOR STRESS PERIOD   30   TIME STEP    8
 
 WELLS WITH REDUCED PUMPING FOR STRESS PERIOD    30 TIME STEP     8
   LAY   ROW   COL         APPL.Q          ACT.Q        GW-HEAD       CELL-BOT
     1     3    50  -0.509955E+00  -0.350386E+00   0.702791E+01   0.000000E+00
     1     5    55  -0.509955E+00  -0.278687E+00   0.589450E+01   0.000000E+00
 
 
 SOLVING FOR HEAD 
                                                   Max.-Head-Change                         Max.-Flux-Residual
  Residual-Control   Outer-Iter.   Inner-Iter.     Column Row Layer    Maximum-Head-Change  Column Row Layer    Maximum-Flux-Residual          L2-NORM 
          0                 1           2            50    2     1       0.3462559416E-01      50    2    1         0.4002858960E-02      0.2300095858E-01
          0                 2           2            50    2     1      -0.3396453670E-02      50    2    1        -0.4012293080E-03      0.2225862760E-02
          0                 3           2            50    2     1       0.3013452029E-03      50    2    1         0.3610006957E-04      0.2048533352E-03
          0                 4           1            50    2     1      -0.2387284406E-04      50    2    1        -0.2891704458E-05      0.1700188719E-04
          0                 5           1            50    2     1       0.1661962241E-05      50    2    1         0.2032834521E-06      0.1235046242E-05
          0                 6           1            50    2     1      -0.9977974790E-07      50    2    1        -0.1231817662E-07      0.7676668456E-07

    ------------------------------------------------
       NWT REQUIRED            6 OUTER ITERATIONS 
       AND A TOTAL OF          9 INNER ITERATIONS.
    ------------------------------------------------

 NO OUTPUT CONTROL FOR STRESS PERIOD   30   TIME STEP    9
 
 WELLS WITH REDUCED PUMPING FOR STRESS PERIOD    30 TIME STEP     9
   LAY   ROW   COL         APPL.Q          ACT.Q        GW-HEAD       CELL-BOT
     1     3    50  -0.509979E+00  -0.352045E+00   0.705365E+01   0.000000E+00
     1     5    55  -0.509979E+00  -0.279971E+00   0.591301E+01   0.000000E+00
 
 
 SOLVING FOR HEAD 
                                                   Max.-Head-Change                         Max.-Flux-Residual
  Residual-Control   Outer-Iter.   Inner-Iter.     Column Row Layer    Maximum-Head-Change  Column Row Layer    Maximum-Flux-Residual          L2-NORM 
          0                 1           2            50    2     1       0.3195139839E-01      50    2    1         0.3358180052E-02      0.2246455801E-01
          0                 2           2            50    2     1      -0.3132727082E-02      50    2    1        -0.3366411563E-03      0.2178397870E-02
          0                 3           2            50    2     1       0.2778038298E-03      50    2    1         0.3028860226E-04      0.2007904772E-03
          0                 4           1            50    2     1      -0.2200043636E-04      50    2    1        -0.2426193382E-05      0.1672035747E-04
          0                 5           1            50    2     1       0.1531308777E-05      50    2    1         0.1705585548E-06      0.1219536243E-05
          0                 6           1            50    2     1      -0.9192759011E-07      50    2    1        -0.1033517691E-07      0.7610433295E-07

    ------------------------------------------------
       NWT REQUIRED            6 OUTER ITERATIONS 
       AND A TOTAL OF          9 INNER ITERATIONS.
    ------------------------------------------------

 NO OUTPUT CONTROL FOR STRESS PERIOD   30   TIME STEP   10
 
 WELLS WITH REDUCED PUMPING FOR STRESS PERIOD    30 TIME STEP    10
   LAY   ROW   COL         APPL.Q          ACT.Q        GW-HEAD       CELL-BOT
     1     3    50  -0.509957E+00  -0.353402E+00   0.707522E+01   0.000000E+00
     1     5    55  -0.509957E+00  -0.281001E+00   0.592820E+01   0.000000E+00
 
 
 SOLVING FOR HEAD 
                                                   Max.-Head-Change                         Max.-Flux-Residual
  Residual-Control   Outer-Iter.   Inner-Iter.     Column Row Layer    Maximum-Head-Change  Column Row Layer    Maximum-Flux-Residual          L2-NORM 
          0                 1           2            50    2     1       0.2952655084E-01      50    2    1         0.2817224084E-02      0.2208302986E-01
          0                 2           2            50    2     1      -0.2893071099E-02      50    2    1        -0.2824048138E-03      0.2143717377E-02
          0                 3           2            50    2     1       0.2564006212E-03      50    2    1         0.2540893132E-04      0.1978442236E-03
          0                 4           1            50    1     1      -0.2030503977E-04      50    2    1        -0.2035318318E-05      0.1652749142E-04
          0                 5           1            50    1     1       0.1413642922E-05      50    2    1         0.1430805022E-06      0.1210282664E-05
          0                 6           1            50    1     1      -0.8484775656E-07      50    2    1        -0.8670115070E-08      0.7582938198E-07

    ------------------------------------------------
       NWT REQUIRED            6 OUTER ITERATIONS 
       AND A TOTAL OF          9 INNER ITERATIONS.
    ------------------------------------------------

 NO OUTPUT CONTROL FOR STRESS PERIOD   30   TIME STEP   11
 
 WELLS WITH REDUCED PUMPING FOR STRESS PERIOD    30 TIME STEP    11
   LAY   ROW   COL         APPL.Q          ACT.Q        GW-HEAD       CELL-BOT
     1     3    50  -0.510017E+00  -0.354607E+00   0.709354E+01   0.000000E+00
     1     5    55  -0.510017E+00  -0.281899E+00   0.594081E+01   0.000000E+00
 
 
 SOLVING FOR HEAD 
                                                   Max.-Head-Change                         Max.-Flux-Residual
  Residual-Control   Outer-Iter.   Inner-Iter.     Column Row Layer    Maximum-Head-Change  Column Row Layer    Maximum-Flux-Residual          L2-NORM 
          0                 1           2            50    1     1       0.2877229858E-01      50    2    1         0.2366887954E-02      0.2179243341E-01
          0                 2           2            50    1     1      -0.2844982190E-02      50    2    1        -0.2372229890E-03      0.2117015273E-02
          0                 3           2            50    1     1       0.2533068301E-03      50    2    1         0.2134418065E-04      0.1956360186E-03
          0                 4           1            50    1     1      -0.2009095359E-04      50    2    1        -0.1709718437E-05      0.1639317760E-04
          0                 5           1            50    1     1       0.1398400375E-05      50    2    1         0.1201912309E-06      0.1205073510E-05
          0                 6           1            50    1     1      -0.8391560602E-07      50    2    1        -0.7283115555E-08      0.7580357634E-07

    ------------------------------------------------
       NWT REQUIRED            6 OUTER ITERATIONS 
       AND A TOTAL OF          9 INNER ITERATIONS.
    ------------------------------------------------

 NO OUTPUT CONTROL FOR STRESS PERIOD   30   TIME STEP   12
 
 WELLS WITH REDUCED PUMPING FOR STRESS PERIOD    30 TIME STEP    12
   LAY   ROW   COL         APPL.Q          ACT.Q        GW-HEAD       CELL-BOT
     1     3    50  -0.510026E+00  -0.355641E+00   0.710975E+01   0.000000E+00
     1     5    55  -0.510026E+00  -0.282655E+00   0.595177E+01   0.000000E+00
 
 
 SOLVING FOR HEAD 
                                                   Max.-Head-Change                         Max.-Flux-Residual
  Residual-Control   Outer-Iter.   Inner-Iter.     Column Row Layer    Maximum-Head-Change  Column Row Layer    Maximum-Flux-Residual          L2-NORM 
          0                 1           2            50    1     1       0.2809047427E-01      50    1    1         0.2094937220E-02      0.2159516606E-01
          0                 2           2            50    1     1      -0.2776816660E-02      50    1    1        -0.2097760615E-03      0.2097750530E-02
          0                 3           2            50    1     1       0.2471671503E-03      50    1    1         0.1887694624E-04      0.1940208185E-03
          0                 4           1            50    1     1      -0.1960036412E-04      50    1    1        -0.1512067350E-05      0.1630331430E-04
          0                 5           1            50    1     1       0.1363789795E-05      50    1    1         0.1061906133E-06      0.1202882849E-05
          0                 6           1            50    1     1      -0.8181477008E-07      50    1    1        -0.6428204691E-08      0.7596354078E-07

    ------------------------------------------------
       NWT REQUIRED            6 OUTER ITERATIONS 
       AND A TOTAL OF          9 INNER ITERATIONS.
    ------------------------------------------------

 NO OUTPUT CONTROL FOR STRESS PERIOD   30   TIME STEP   13
 
 WELLS WITH REDUCED PUMPING FOR STRESS PERIOD    30 TIME STEP    13
   LAY   ROW   COL         APPL.Q          ACT.Q        GW-HEAD       CELL-BOT
     1     3    50  -0.510026E+00  -0.356572E+00   0.712446E+01   0.000000E+00
     1     5    55  -0.510026E+00  -0.283325E+00   0.596153E+01   0.000000E+00
 
 
 SOLVING FOR HEAD 
                                                   Max.-Head-Change                         Max.-Flux-Residual
  Residual-Control   Outer-Iter.   Inner-Iter.     Column Row Layer    Maximum-Head-Change  Column Row Layer    Maximum-Flux-Residual          L2-NORM 
          0                 1           2            50    1     1       0.2714119939E-01      50    1    1         0.1859402589E-02      0.2141972684E-01
          0                 2           2            50    1     1      -0.2681833602E-02      50    1    1        -0.1862152867E-03      0.2081060849E-02
          0                 3           2            50    1     1       0.2386295285E-03      50    1    1         0.1675655158E-04      0.1926636220E-03
          0                 4           1            50    1     1      -0.1891873406E-04      50    1    1        -0.1342223086E-05      0.1623677217E-04
          0                 5           1            50    1     1       0.1315743341E-05      50    1    1         0.9422098302E-07      0.1202391769E-05
          0                 6           1            50    1     1      -0.7890024240E-07       2    4    1        -0.6292559362E-08      0.7622769605E-07

    ------------------------------------------------
       NWT REQUIRED            6 OUTER ITERATIONS 
       AND A TOTAL OF          9 INNER ITERATIONS.
    ------------------------------------------------

 NO OUTPUT CONTROL FOR STRESS PERIOD   30   TIME STEP   14
 
 WELLS WITH REDUCED PUMPING FOR STRESS PERIOD    30 TIME STEP    14
   LAY   ROW   COL         APPL.Q          ACT.Q        GW-HEAD       CELL-BOT
     1     3    50  -0.510011E+00  -0.357423E+00   0.713809E+01   0.000000E+00
     1     5    55  -0.510011E+00  -0.283927E+00   0.597045E+01   0.000000E+00
 
 
 SOLVING FOR HEAD 
                                                   Max.-Head-Change                         Max.-Flux-Residual
  Residual-Control   Outer-Iter.   Inner-Iter.     Column Row Layer    Maximum-Head-Change  Column Row Layer    Maximum-Flux-Residual          L2-NORM 
          0                 1           2            50    1     1       0.2602867402E-01      50    1    1         0.1633307257E-02      0.2127252749E-01
          0                 2           2            50    1     1      -0.2569894674E-02      50    1    1        -0.1635803575E-03      0.2066731904E-02
          0                 3           2            50    1     1       0.2285493201E-03      50    1    1         0.1471966008E-04      0.1915449545E-03
          0                 4           1            50    1     1      -0.1811314092E-04      50    1    1        -0.1179066023E-05      0.1618582463E-04
          0                 5           1            50    1     1       0.1258887145E-05       1    4    1         0.8652086692E-07      0.1202661931E-05
          0                 6           1            50    1     1      -0.7544771678E-07       1    4    1        -0.6443308109E-08      0.7652997082E-07

    ------------------------------------------------
       NWT REQUIRED            6 OUTER ITERATIONS 
       AND A TOTAL OF          9 INNER ITERATIONS.
    ------------------------------------------------

 NO OUTPUT CONTROL FOR STRESS PERIOD   30   TIME STEP   15
 
 WELLS WITH REDUCED PUMPING FOR STRESS PERIOD    30 TIME STEP    15
   LAY   ROW   COL         APPL.Q          ACT.Q        GW-HEAD       CELL-BOT
     1     3    50  -0.510011E+00  -0.358228E+00   0.715085E+01   0.000000E+00
     1     5    55  -0.510011E+00  -0.284489E+00   0.597865E+01   0.000000E+00
 
 
 SOLVING FOR HEAD 
                                                   Max.-Head-Change                         Max.-Flux-Residual
  Residual-Control   Outer-Iter.   Inner-Iter.     Column Row Layer    Maximum-Head-Change  Column Row Layer    Maximum-Flux-Residual          L2-NORM 
          0                 1           2            50    1     1       0.2487325605E-01      50    1    1         0.1424065942E-02      0.2121703037E-01
          0                 2           2            50    1     1      -0.2451421855E-02      50    1    1        -0.1426196376E-03      0.2056228668E-02
          0                 3           2            50    1     1       0.2178049474E-03      50    1    1         0.1283353951E-04      0.1906576537E-03
          0                 4           1            50    1     1      -0.1725237832E-04      50    1    1        -0.1027985035E-05      0.1615134275E-04
          0                 5           1            50    1     1       0.1198017967E-05       1    4    1         0.8859386469E-07      0.1203866910E-05
          0                 6           1            50    1     1      -0.7174638120E-07       1    4    1        -0.6633815275E-08      0.7687864680E-07

    ------------------------------------------------
       NWT REQUIRED            6 OUTER ITERATIONS 
       AND A TOTAL OF          9 INNER ITERATIONS.
    ------------------------------------------------

 NO OUTPUT CONTROL FOR STRESS PERIOD   30   TIME STEP   16
 
 WELLS WITH REDUCED PUMPING FOR STRESS PERIOD    30 TIME STEP    16
   LAY   ROW   COL         APPL.Q          ACT.Q        GW-HEAD       CELL-BOT
     1     3    50  -0.510011E+00  -0.359010E+00   0.716326E+01   0.000000E+00
     1     5    55  -0.510011E+00  -0.285023E+00   0.598645E+01   0.000000E+00
 
 
 SOLVING FOR HEAD 
                                                   Max.-Head-Change                         Max.-Flux-Residual
  Residual-Control   Outer-Iter.   Inner-Iter.     Column Row Layer    Maximum-Head-Change  Column Row Layer    Maximum-Flux-Residual          L2-NORM 
          0                 1           2             2    1     1      -0.2504902383E-01      50    1    1         0.1237348029E-02      0.2110781160E-01
          0                 2           2            51    1     1      -0.2431524981E-02      50    1    1        -0.1239073835E-03      0.2048321186E-02
          0                 3           2            51    1     1       0.2156663890E-03      50    1    1         0.1114982822E-04      0.1901343399E-03
          0                 4           1            51    1     1      -0.1707204929E-04      14    4    1        -0.8965875615E-06      0.1614538064E-04
          0                 5           1            51    1     1       0.1186597235E-05      14    4    1         0.8810137331E-07      0.1206722287E-05
          0                 6           1            51    1     1      -0.7114377429E-07      14    4    1        -0.6619703896E-08      0.7730765630E-07

    ------------------------------------------------
       NWT REQUIRED            6 OUTER ITERATIONS 
       AND A TOTAL OF          9 INNER ITERATIONS.
    ------------------------------------------------

 NO OUTPUT CONTROL FOR STRESS PERIOD   30   TIME STEP   17
 
 WELLS WITH REDUCED PUMPING FOR STRESS PERIOD    30 TIME STEP    17
   LAY   ROW   COL         APPL.Q          ACT.Q        GW-HEAD       CELL-BOT
     1     3    50  -0.510022E+00  -0.359803E+00   0.717573E+01   0.000000E+00
     1     5    55  -0.510022E+00  -0.285584E+00   0.599454E+01   0.000000E+00
 
 
 SOLVING FOR HEAD 
                                                   Max.-Head-Change                         Max.-Flux-Residual
  Residual-Control   Outer-Iter.   Inner-Iter.     Column Row Layer    Maximum-Head-Change  Column Row Layer    Maximum-Flux-Residual          L2-NORM 
          0                 1           2             1    1     1      -0.2755880311E-01       2    3    1        -0.1138383142E-02      0.2103891992E-01
          0                 2           2             3    1     1       0.2573029271E-02       2    3    1         0.1138343990E-03      0.2040877886E-02
          0                 3           2            51    1     1       0.2233477404E-03       2    3    1        -0.1024537944E-04      0.1895500464E-03
          0                 4           1            51    1     1      -0.1766889168E-04      33    4    1        -0.9116072093E-06      0.1613120698E-04
          0                 5           1            51    1     1       0.1227022567E-05      15    4    1         0.8902989990E-07      0.1208594525E-05
          0                 6           1            51    1     1      -0.7351719371E-07      15    4    1        -0.6702485678E-08      0.7765508194E-07

    ------------------------------------------------
       NWT REQUIRED            6 OUTER ITERATIONS 
       AND A TOTAL OF          9 INNER ITERATIONS.
    ------------------------------------------------

 NO OUTPUT CONTROL FOR STRESS PERIOD   30   TIME STEP   18
 
 WELLS WITH REDUCED PUMPING FOR STRESS PERIOD    30 TIME STEP    18
   LAY   ROW   COL         APPL.Q          ACT.Q        GW-HEAD       CELL-BOT
     1     3    50  -0.510017E+00  -0.360579E+00   0.718813E+01   0.000000E+00
     1     5    55  -0.510017E+00  -0.286121E+00   0.600243E+01   0.000000E+00
 
 
 SOLVING FOR HEAD 
                                                   Max.-Head-Change                         Max.-Flux-Residual
  Residual-Control   Outer-Iter.   Inner-Iter.     Column Row Layer    Maximum-Head-Change  Column Row Layer    Maximum-Flux-Residual          L2-NORM 
          0                 1           2             1    1     1      -0.3030304476E-01       1    5    1        -0.1139728352E-02      0.2096357699E-01
          0                 2           2             2    1     1       0.2823830984E-02       1    5    1         0.1139686508E-03      0.2034124976E-02
          0                 3           2             2    1     1      -0.2371907221E-03       1    3    1        -0.1025753201E-04      0.1890564693E-03
          0                 4           1            51    1     1      -0.1815838386E-04      33    4    1        -0.9255915767E-06      0.1612373550E-04
          0                 5           1            51    1     1       0.1259504456E-05      15    4    1         0.9078535612E-07      0.1210507984E-05
          0                 6           1            51    1     1      -0.7538999119E-07      15    4    1        -0.6861274215E-08      0.7797831084E-07

    ------------------------------------------------
       NWT REQUIRED            6 OUTER ITERATIONS 
       AND A TOTAL OF          9 INNER ITERATIONS.
    ------------------------------------------------

 NO OUTPUT CONTROL FOR STRESS PERIOD   30   TIME STEP   19
 
 WELLS WITH REDUCED PUMPING FOR STRESS PERIOD    30 TIME STEP    19
   LAY   ROW   COL         APPL.Q          ACT.Q        GW-HEAD       CELL-BOT
     1     3    50  -0.509989E+00  -0.361334E+00   0.720048E+01   0.000000E+00
     1     5    55  -0.509989E+00  -0.286651E+00   0.601040E+01   0.000000E+00
 
 
 SOLVING FOR HEAD 
                                                   Max.-Head-Change                         Max.-Flux-Residual
  Residual-Control   Outer-Iter.   Inner-Iter.     Column Row Layer    Maximum-Head-Change  Column Row Layer    Maximum-Flux-Residual          L2-NORM 
          0                 1           2             1    1     1      -0.3330992927E-01       1    5    1        -0.1138477487E-02      0.2086917944E-01
          0                 2           2             1    1     1       0.3098843119E-02       1    5    1         0.1138433894E-03      0.2026956784E-02
          0                 3           2             1    1     1      -0.2596096518E-03       1    5    1        -0.1024628993E-04      0.1886240731E-03
          0                 4           1             1    1     1       0.1935921729E-04      33    4    1        -0.9385400332E-06      0.1612047100E-04
          0                 5           1            51    1     1       0.1283561787E-05      16    4    1         0.9155639447E-07      0.1211962999E-05
          0                 6           1            51    1     1      -0.7675255950E-07      16    4    1        -0.6947061593E-08      0.7822670599E-07

    ------------------------------------------------
       NWT REQUIRED            6 OUTER ITERATIONS 
       AND A TOTAL OF          9 INNER ITERATIONS.
    ------------------------------------------------

 NO OUTPUT CONTROL FOR STRESS PERIOD   30   TIME STEP   20
 
 WELLS WITH REDUCED PUMPING FOR STRESS PERIOD    30 TIME STEP    20
   LAY   ROW   COL         APPL.Q          ACT.Q        GW-HEAD       CELL-BOT
     1     3    50  -0.509985E+00  -0.362083E+00   0.721248E+01   0.000000E+00
     1     5    55  -0.509985E+00  -0.287176E+00   0.601810E+01   0.000000E+00
 
 
 SOLVING FOR HEAD 
                                                   Max.-Head-Change                         Max.-Flux-Residual
  Residual-Control   Outer-Iter.   Inner-Iter.     Column Row Layer    Maximum-Head-Change  Column Row Layer    Maximum-Flux-Residual          L2-NORM 
          0                 1           2            51    4     1       0.4180644753E-01      51    4    1         0.1468698843E-02      0.2094410374E-01
          0                 2           2             1    1     1       0.3376346927E-02       1    1    1         0.1137531622E-03      0.2020081418E-02
          0                 3           2             1    1     1      -0.2817393127E-03       1    7    1        -0.1023811071E-04      0.1882629314E-03
          0                 4           1             1    1     1       0.2091703251E-04      16    4    1        -0.9694095660E-06      0.1615340676E-04
          0                 5           1             1    1     1      -0.1349787573E-05      16    4    1         0.9602161910E-07      0.1217005874E-05
          0                 6           1            51    1     1      -0.7798973709E-07      16    4    1        -0.7267026092E-08      0.7869726723E-07

    ------------------------------------------------
       NWT REQUIRED            6 OUTER ITERATIONS 
       AND A TOTAL OF          9 INNER ITERATIONS.
    ------------------------------------------------

 NO OUTPUT CONTROL FOR STRESS PERIOD   30   TIME STEP   21
 
 WELLS WITH REDUCED PUMPING FOR STRESS PERIOD    30 TIME STEP    21
   LAY   ROW   COL         APPL.Q          ACT.Q        GW-HEAD       CELL-BOT
     1     3    50  -0.510000E+00  -0.363030E+00   0.722743E+01   0.000000E+00
     1     5    55  -0.510000E+00  -0.287892E+00   0.602844E+01   0.000000E+00
 
 
 SOLVING FOR HEAD 
                                                   Max.-Head-Change                         Max.-Flux-Residual
  Residual-Control   Outer-Iter.   Inner-Iter.     Column Row Layer    Maximum-Head-Change  Column Row Layer    Maximum-Flux-Residual          L2-NORM 
          0                 1           2             1    1     1      -0.3903566437E-01       1    7    1        -0.1130874163E-02      0.2059456479E-01
          0                 2           2             1    1     1       0.3617544177E-02       1    1    1         0.1130717511E-03      0.2014438690E-02
          0                 3           2             1    1     1      -0.3015928705E-03       1    7    1        -0.1017688947E-04      0.1889736492E-03
          0                 4           1             1    1     1       0.2235422284E-04      17    4    1        -0.1075799485E-05      0.1626780956E-04
          0                 5           1             1    1     1      -0.1433668456E-05      17    4    1         0.1017715832E-06      0.1225270792E-05
          0                 6           1            51    1     1      -0.8267976142E-07      17    4    1        -0.7492218401E-08      0.7919719902E-07

    ------------------------------------------------
       NWT REQUIRED            6 OUTER ITERATIONS 
       AND A TOTAL OF          9 INNER ITERATIONS.
    ------------------------------------------------

 NO OUTPUT CONTROL FOR STRESS PERIOD   30   TIME STEP   22
 
 WELLS WITH REDUCED PUMPING FOR STRESS PERIOD    30 TIME STEP    22
   LAY   ROW   COL         APPL.Q          ACT.Q        GW-HEAD       CELL-BOT
     1     3    50  -0.509996E+00  -0.363933E+00   0.724192E+01   0.000000E+00
     1     5    55  -0.509996E+00  -0.288595E+00   0.603875E+01   0.000000E+00
 
 
 SOLVING FOR HEAD 
                                                   Max.-Head-Change                         Max.-Flux-Residual
  Residual-Control   Outer-Iter.   Inner-Iter.     Column Row Layer    Maximum-Head-Change  Column Row Layer    Maximum-Flux-Residual          L2-NORM 
          0                 1           2             1    1     1      -0.4260534013E-01       1    7    1        -0.1102118163E-02      0.2027172971E-01
          0                 2           2             1    1     1       0.3934268338E-02       1    1    1         0.1102046269E-03      0.1979951725E-02
          0                 3           2             1    1     1      -0.3266021942E-03       1    7    1        -0.9918812040E-05      0.1855552178E-03
          0                 4           1             1    1     1       0.2407787627E-04      25    4    1        -0.1031638865E-05      0.1599328913E-04
          0                 5           1             1    1     1      -0.1525838294E-05      24    4    1         0.9746941743E-07      0.1203972947E-05
          0                 6           1            51    1     1      -0.8602303223E-07      24    4    1        -0.7218712739E-08      0.7786384216E-07

    ------------------------------------------------
       NWT REQUIRED            6 OUTER ITERATIONS 
       AND A TOTAL OF          9 INNER ITERATIONS.
    ------------------------------------------------

 NO OUTPUT CONTROL FOR STRESS PERIOD   30   TIME STEP   23
 
 WELLS WITH REDUCED PUMPING FOR STRESS PERIOD    30 TIME STEP    23
   LAY   ROW   COL         APPL.Q          ACT.Q        GW-HEAD       CELL-BOT
     1     3    50  -0.510009E+00  -0.364763E+00   0.725508E+01   0.000000E+00
     1     5    55  -0.510009E+00  -0.289221E+00   0.604780E+01   0.000000E+00
 
 
 SOLVING FOR HEAD 
                                                   Max.-Head-Change                         Max.-Flux-Residual
  Residual-Control   Outer-Iter.   Inner-Iter.     Column Row Layer    Maximum-Head-Change  Column Row Layer    Maximum-Flux-Residual          L2-NORM 
          0                 1           3             1    1     1      -0.4676477155E-01       1    7    1        -0.1093879428E-02      0.2003030091E-01
          0                 2           2             1    1     1       0.4309959764E-02       1    7    1         0.1093832511E-03      0.1955544784E-02
          0                 3           2             1    1     1      -0.3568853549E-03       1    7    1        -0.9844906851E-05      0.1833423423E-03
          0                 4           1             1    1     1       0.2621457824E-04      32    4    1        -0.1075466074E-05      0.1583829785E-04
          0                 5           1             1    1     1      -0.1641598925E-05      32    4    1         0.1004956705E-06      0.1190968896E-05
          0                 6           1            52    1     1      -0.8959749288E-07      32    4    1        -0.7338577745E-08      0.7699774278E-07

    ------------------------------------------------
       NWT REQUIRED            6 OUTER ITERATIONS 
       AND A TOTAL OF         10 INNER ITERATIONS.
    ------------------------------------------------

 NO OUTPUT CONTROL FOR STRESS PERIOD   30   TIME STEP   24
 
 WELLS WITH REDUCED PUMPING FOR STRESS PERIOD    30 TIME STEP    24
   LAY   ROW   COL         APPL.Q          ACT.Q        GW-HEAD       CELL-BOT
     1     3    50  -0.509998E+00  -0.365530E+00   0.726753E+01   0.000000E+00
     1     5    55  -0.509998E+00  -0.289786E+00   0.605617E+01   0.000000E+00
 
 
 SOLVING FOR HEAD 
                                                   Max.-Head-Change                         Max.-Flux-Residual
  Residual-Control   Outer-Iter.   Inner-Iter.     Column Row Layer    Maximum-Head-Change  Column Row Layer    Maximum-Flux-Residual          L2-NORM 
          0                 1           3             1    1     1      -0.5138212270E-01       1    7    1        -0.1091697680E-02      0.1981238408E-01
          0                 2           2             1    1     1       0.4727572534E-02       1    7    1         0.1091651939E-03      0.1934095997E-02
          0                 3           2             1    1     1      -0.3906007327E-03       1    7    1        -0.9825325765E-05      0.1814485188E-03
          0                 4           1             1    1     1       0.2859375381E-04      34    4    1        -0.1061127360E-05      0.1570329823E-04
          0                 5           1             1    1     1      -0.1767132316E-05      32    4    1         0.9935653722E-07      0.1178058367E-05
          0                 6           1            52    1     1      -0.9441177096E-07      32    4    1        -0.7277373371E-08      0.7607671030E-07

    ------------------------------------------------
       NWT REQUIRED            6 OUTER ITERATIONS 
       AND A TOTAL OF         10 INNER ITERATIONS.
    ------------------------------------------------

 NO OUTPUT CONTROL FOR STRESS PERIOD   30   TIME STEP   25
 
 WELLS WITH REDUCED PUMPING FOR STRESS PERIOD    30 TIME STEP    25
   LAY   ROW   COL         APPL.Q          ACT.Q        GW-HEAD       CELL-BOT
     1     3    50  -0.510005E+00  -0.366268E+00   0.727931E+01   0.000000E+00
     1     5    55  -0.510005E+00  -0.290326E+00   0.606400E+01   0.000000E+00
 
 
 SOLVING FOR HEAD 
                                                   Max.-Head-Change                         Max.-Flux-Residual
  Residual-Control   Outer-Iter.   Inner-Iter.     Column Row Layer    Maximum-Head-Change  Column Row Layer    Maximum-Flux-Residual          L2-NORM 
          0                 1           3             1    1     1      -0.5645986813E-01       1    7    1        -0.1090595658E-02      0.1961387328E-01
          0                 2           2             1    1     1       0.5186721906E-02       1    7    1         0.1090545336E-03      0.1913363389E-02
          0                 3           2             1    1     1      -0.4276457006E-03       1    7    1        -0.9815420178E-05      0.1794718501E-03
          0                 4           1             1    1     1       0.3119702248E-04      66    4    1        -0.9902524170E-06      0.1555458191E-04
          0                 5           1             1    1     1      -0.1895614931E-05      19    4    1         0.9473597729E-07      0.1162223050E-05
          0                 6           1             1    1     1       0.9942088222E-07      20    4    1        -0.7156462090E-08      0.7489441330E-07

    ------------------------------------------------
       NWT REQUIRED            6 OUTER ITERATIONS 
       AND A TOTAL OF         10 INNER ITERATIONS.
    ------------------------------------------------

 NO OUTPUT CONTROL FOR STRESS PERIOD   30   TIME STEP   26
 
 WELLS WITH REDUCED PUMPING FOR STRESS PERIOD    30 TIME STEP    26
   LAY   ROW   COL         APPL.Q          ACT.Q        GW-HEAD       CELL-BOT
     1     3    50  -0.510003E+00  -0.366961E+00   0.729049E+01   0.000000E+00
     1     5    55  -0.510003E+00  -0.290836E+00   0.607148E+01   0.000000E+00
 
 
 SOLVING FOR HEAD 
                                                   Max.-Head-Change                         Max.-Flux-Residual
  Residual-Control   Outer-Iter.   Inner-Iter.     Column Row Layer    Maximum-Head-Change  Column Row Layer    Maximum-Flux-Residual          L2-NORM 
          0                 1           3             1    1     1      -0.6203454424E-01       1    7    1        -0.1089569497E-02      0.1944058477E-01
          0                 2           2             1    1     1       0.5690593609E-02       1    7    1         0.1089513031E-03      0.1894410740E-02
          0                 3           2             1    1     1      -0.4682625544E-03       1    7    1        -0.9806189698E-05      0.1776455954E-03
          0                 4           1             1    1     1       0.3403811302E-04      33    4    1        -0.9855398808E-06      0.1541704223E-04
          0                 5           1             1    1     1      -0.2025486986E-05      20    4    1         0.9568661952E-07      0.1145363006E-05
          0                 6           1             1    1     1       0.1040937420E-06      20    4    1        -0.7218268649E-08      0.7357174988E-07

    ------------------------------------------------
       NWT REQUIRED            6 OUTER ITERATIONS 
       AND A TOTAL OF         10 INNER ITERATIONS.
    ------------------------------------------------

 NO OUTPUT CONTROL FOR STRESS PERIOD   30   TIME STEP   27
 
 WELLS WITH REDUCED PUMPING FOR STRESS PERIOD    30 TIME STEP    27
   LAY   ROW   COL         APPL.Q          ACT.Q        GW-HEAD       CELL-BOT
     1     3    50  -0.510001E+00  -0.367627E+00   0.730125E+01   0.000000E+00
     1     5    55  -0.510001E+00  -0.291319E+00   0.607858E+01   0.000000E+00
 
 
 SOLVING FOR HEAD 
                                                   Max.-Head-Change                         Max.-Flux-Residual
  Residual-Control   Outer-Iter.   Inner-Iter.     Column Row Layer    Maximum-Head-Change  Column Row Layer    Maximum-Flux-Residual          L2-NORM 
          0                 1           3             1    1     1      -0.6815221909E-01       1    7    1        -0.1088449312E-02      0.1929055227E-01
          0                 2           2             1    1     1       0.6243322649E-02       1    7    1         0.1088385850E-03      0.1877796968E-02
          0                 3           2             1    1     1      -0.5127746038E-03       3    2    1        -0.9796689156E-05      0.1760124091E-03
          0                 4           1             1    1     1       0.3713453828E-04      33    4    1        -0.9890673365E-06      0.1529261492E-04
          0                 5           1             1    1     1      -0.2153031385E-05      20    4    1         0.9656932676E-07      0.1127390721E-05
          0                 6           1             1    1     1       0.1079614157E-06      20    4    1        -0.7250633871E-08      0.7212678958E-07

    ------------------------------------------------
       NWT REQUIRED            6 OUTER ITERATIONS 
       AND A TOTAL OF         10 INNER ITERATIONS.
    ------------------------------------------------

 NO OUTPUT CONTROL FOR STRESS PERIOD   30   TIME STEP   28
 
 WELLS WITH REDUCED PUMPING FOR STRESS PERIOD    30 TIME STEP    28
   LAY   ROW   COL         APPL.Q          ACT.Q        GW-HEAD       CELL-BOT
     1     3    50  -0.509991E+00  -0.368265E+00   0.731166E+01   0.000000E+00
     1     5    55  -0.509991E+00  -0.291769E+00   0.608524E+01   0.000000E+00
 
 
 SOLVING FOR HEAD 
                                                   Max.-Head-Change                         Max.-Flux-Residual
  Residual-Control   Outer-Iter.   Inner-Iter.     Column Row Layer    Maximum-Head-Change  Column Row Layer    Maximum-Flux-Residual          L2-NORM 
          0                 1           3             1    1     1      -0.7486400767E-01       1    7    1        -0.1087202855E-02      0.1916196150E-01
          0                 2           2             1    1     1       0.6849510251E-02       1    7    1         0.1087131583E-03      0.1863211318E-02
          0                 3           2             1    1     1      -0.5615398151E-03       4    3    1        -0.9789673172E-05      0.1745557275E-03
          0                 4           1             1    1     1       0.4050465614E-04      33    4    1        -0.9921642636E-06      0.1518117963E-04
          0                 5           1             1    1     1      -0.2273151766E-05      21    4    1         0.9533634326E-07      0.1108361489E-05
          0                 6           1             1    1     1       0.1106522194E-06      22    4    1        -0.7104436150E-08      0.7059663860E-07

    ------------------------------------------------
       NWT REQUIRED            6 OUTER ITERATIONS 
       AND A TOTAL OF         10 INNER ITERATIONS.
    ------------------------------------------------

 NO OUTPUT CONTROL FOR STRESS PERIOD   30   TIME STEP   29
 
 WELLS WITH REDUCED PUMPING FOR STRESS PERIOD    30 TIME STEP    29
   LAY   ROW   COL         APPL.Q          ACT.Q        GW-HEAD       CELL-BOT
     1     3    50  -0.510005E+00  -0.368888E+00   0.732156E+01   0.000000E+00
     1     5    55  -0.510005E+00  -0.292213E+00   0.609163E+01   0.000000E+00
 
 
 SOLVING FOR HEAD 
                                                   Max.-Head-Change                         Max.-Flux-Residual
  Residual-Control   Outer-Iter.   Inner-Iter.     Column Row Layer    Maximum-Head-Change  Column Row Layer    Maximum-Flux-Residual          L2-NORM 
          0                 1           3             1    1     1      -0.8222556927E-01       1    7    1        -0.1085815897E-02      0.1905565389E-01
          0                 2           2             1    1     1       0.7514163478E-02       1    7    1         0.1085735918E-03      0.1850618358E-02
          0                 3           2             1    1     1      -0.6149426740E-03       4    3    1        -0.9783892320E-05      0.1732943799E-03
          0                 4           1             3    1     1       0.4416950045E-04      34    4    1        -0.9659656026E-06      0.1508626629E-04
          0                 5           1             1    1     1      -0.2378990606E-05       9    4    1         0.9720537975E-07      0.1088426011E-05
          0                 6           1             1    1     1       0.1117789810E-06       9    4    1        -0.7134985935E-08      0.6902844095E-07

    ------------------------------------------------
       NWT REQUIRED            6 OUTER ITERATIONS 
       AND A TOTAL OF         10 INNER ITERATIONS.
    ------------------------------------------------

 OUTPUT CONTROL FOR STRESS PERIOD   30   TIME STEP   30
    PRINT HEAD FOR ALL LAYERS
    SAVE HEAD FOR ALL LAYERS
    PRINT BUDGET
    SAVE BUDGET
 
 WELLS WITH REDUCED PUMPING FOR STRESS PERIOD    30 TIME STEP    30
   LAY   ROW   COL         APPL.Q          ACT.Q        GW-HEAD       CELL-BOT
     1     3    50  -0.509997E+00  -0.369538E+00   0.733216E+01   0.000000E+00
     1     5    55  -0.509997E+00  -0.292694E+00   0.609875E+01   0.000000E+00

            WELLS   PERIOD   30   STEP  30
 WELL      1   LAYER   1   ROW     3   COL    50   RATE   -0.369538    
 WELL      2   LAYER   1   ROW     5   COL    55   RATE   -0.292694    
 

  HEAD DEP BOUNDS   PERIOD   30   STEP    30
 BOUNDARY      1   LAYER   1   ROW     1   COL   100   RATE    5.184896E-03
 BOUNDARY      2   LAYER   1   ROW     2   COL   100   RATE    5.130375E-03
 BOUNDARY      3   LAYER   1   ROW     3   COL   100   RATE    4.898024E-03
 BOUNDARY      4   LAYER   1   ROW     4   COL   100   RATE    1.368829E-03
 BOUNDARY      5   LAYER   1   ROW     5   COL   100   RATE    4.898024E-03
 BOUNDARY      6   LAYER   1   ROW     6   COL   100   RATE    5.130375E-03
 BOUNDARY      7   LAYER   1   ROW     7   COL   100   RATE    5.184896E-03



 STREAM LISTING     PERIOD     30   STEP       30

 LAYER ROW COL. STREAM  RCH.   FLOW INTO    STREAM     FLOW OUT OF   OVRLND.    DIRECT     STREAM      STREAM      STREAM     STREAM  STREAMBED   FLOW TO   CHNG. UNSAT. 
                SEG.NO.  NO.   STRM. RCH.    LOSS       STRM. RCH.   RUNOFF     PRECIP       ET         HEAD        DEPTH      WIDTH  CONDCTNC.   WAT. TAB.

   1    4    1     1     1    7.7100E+00  2.4041E-03   7.7076E+00  0.000E+00  0.000E+00  0.000E+00  1.41958E+02  2.108E+00  4.335E+00  9.217E-04  2.130E-03  2.741E-04
   1    4    2     1     2    7.7076E+00  2.4035E-03   7.7052E+00  0.000E+00  0.000E+00  0.000E+00  1.41658E+02  2.108E+00  4.335E+00  9.216E-04  2.130E-03  2.738E-04
   1    4    3     1     3    7.7052E+00  2.4029E-03   7.7028E+00  0.000E+00  0.000E+00  0.000E+00  1.41358E+02  2.108E+00  4.334E+00  9.214E-04  2.129E-03  2.734E-04
   1    4    4     1     4    7.7028E+00  2.4023E-03   7.7004E+00  0.000E+00  0.000E+00  0.000E+00  1.41057E+02  2.107E+00  4.334E+00  9.213E-04  2.129E-03  2.731E-04
   1    4    5     1     5    7.7004E+00  2.4017E-03   7.6980E+00  0.000E+00  0.000E+00  0.000E+00  1.40757E+02  2.107E+00  4.333E+00  9.212E-04  2.129E-03  2.728E-04
   1    4    6     1     6    7.6980E+00  2.4011E-03   7.6956E+00  0.000E+00  0.000E+00  0.000E+00  1.40457E+02  2.107E+00  4.333E+00  9.211E-04  2.129E-03  2.724E-04
   1    4    7     1     7    7.6956E+00  2.4005E-03   7.6932E+00  0.000E+00  0.000E+00  0.000E+00  1.40156E+02  2.106E+00  4.333E+00  9.210E-04  2.128E-03  2.720E-04
   1    4    8     1     8    7.6932E+00  2.3999E-03   7.6908E+00  0.000E+00  0.000E+00  0.000E+00  1.39856E+02  2.106E+00  4.332E+00  9.209E-04  2.128E-03  2.716E-04
   1    4    9     1     9    7.6908E+00  2.3993E-03   7.6884E+00  0.000E+00  0.000E+00  0.000E+00  1.39556E+02  2.106E+00  4.332E+00  9.208E-04  2.128E-03  2.712E-04
   1    4   10     1    10    7.6884E+00  2.3987E-03   7.6860E+00  0.000E+00  0.000E+00  0.000E+00  1.39255E+02  2.105E+00  4.331E+00  9.207E-04  2.128E-03  2.708E-04
   1    4   11     1    11    7.6860E+00  2.3981E-03   7.6836E+00  0.000E+00  0.000E+00  0.000E+00  1.38955E+02  2.105E+00  4.331E+00  9.206E-04  2.128E-03  2.704E-04
   1    4   12     1    12    7.6836E+00  2.3975E-03   7.6812E+00  0.000E+00  0.000E+00  0.000E+00  1.38655E+02  2.105E+00  4.331E+00  9.205E-04  2.128E-03  2.700E-04
   1    4   13     1    13    7.6812E+00  2.3969E-03   7.6788E+00  0.000E+00  0.000E+00  0.000E+00  1.38354E+02  2.104E+00  4.330E+00  9.203E-04  2.127E-03  2.695E-04
   1    4   14     1    14    7.6788E+00  2.3963E-03   7.6764E+00  0.000E+00  0.000E+00  0.000E+00  1.38054E+02  2.104E+00  4.330E+00  9.202E-04  2.127E-03  2.690E-04
   1    4   15     1    15    7.6764E+00  2.3957E-03   7.6740E+00  0.000E+00  0.000E+00  0.000E+00  1.37754E+02  2.104E+00  4.329E+00  9.201E-04  2.127E-03  2.685E-04
   1    4   16     1    16    7.6740E+00  2.3951E-03   7.6716E+00  0.000E+00  0.000E+00  0.000E+00  1.37453E+02  2.103E+00  4.329E+00  9.200E-04  2.127E-03  2.680E-04
   1    4   17     1    17    7.6716E+00  2.3945E-03   7.6692E+00  0.000E+00  0.000E+00  0.000E+00  1.37153E+02  2.103E+00  4.329E+00  9.199E-04  2.127E-03  2.675E-04
   1    4   18     1    18    7.6692E+00  2.3940E-03   7.6668E+00  0.000E+00  0.000E+00  0.000E+00  1.36853E+02  2.103E+00  4.328E+00  9.198E-04  2.127E-03  2.669E-04
   1    4   19     1    19    7.6668E+00  2.3934E-03   7.6644E+00  0.000E+00  0.000E+00  0.000E+00  1.36552E+02  2.102E+00  4.328E+00  9.197E-04  2.127E-03  2.663E-04
   1    4   20     1    20    7.6644E+00  2.3928E-03   7.6620E+00  0.000E+00  0.000E+00  0.000E+00  1.36252E+02  2.102E+00  4.327E+00  9.196E-04  2.127E-03  2.657E-04
   1    4   21     1    21    7.6620E+00  2.3922E-03   7.6596E+00  0.000E+00  0.000E+00  0.000E+00  1.35952E+02  2.102E+00  4.327E+00  9.195E-04  2.142E-03  2.500E-04
   1    4   22     1    22    7.6596E+00  2.3916E-03   7.6572E+00  0.000E+00  0.000E+00  0.000E+00  1.35651E+02  2.101E+00  4.327E+00  9.194E-04  2.145E-03  2.465E-04
   1    4   23     1    23    7.6572E+00  2.3910E-03   7.6549E+00  0.000E+00  0.000E+00  0.000E+00  1.35351E+02  2.101E+00  4.326E+00  9.192E-04  2.145E-03  2.457E-04
   1    4   24     1    24    7.6549E+00  2.3904E-03   7.6525E+00  0.000E+00  0.000E+00  0.000E+00  1.35051E+02  2.101E+00  4.326E+00  9.191E-04  2.146E-03  2.449E-04
   1    4   25     1    25    7.6525E+00  2.3898E-03   7.6501E+00  0.000E+00  0.000E+00  0.000E+00  1.34750E+02  2.100E+00  4.325E+00  9.190E-04  2.146E-03  2.440E-04
   1    4   26     1    26    7.6501E+00  2.3892E-03   7.6477E+00  0.000E+00  0.000E+00  0.000E+00  1.34450E+02  2.100E+00  4.325E+00  9.189E-04  2.146E-03  2.431E-04
   1    4   27     1    27    7.6477E+00  2.3886E-03   7.6453E+00  0.000E+00  0.000E+00  0.000E+00  1.34150E+02  2.100E+00  4.325E+00  9.188E-04  2.146E-03  2.421E-04
   1    4   28     1    28    7.6453E+00  2.3880E-03   7.6429E+00  0.000E+00  0.000E+00  0.000E+00  1.33849E+02  2.099E+00  4.324E+00  9.187E-04  2.147E-03  2.411E-04
   1    4   29     1    29    7.6429E+00  2.3874E-03   7.6405E+00  0.000E+00  0.000E+00  0.000E+00  1.33549E+02  2.099E+00  4.324E+00  9.186E-04  2.147E-03  2.400E-04
   1    4   30     1    30    7.6405E+00  2.3868E-03   7.6381E+00  0.000E+00  0.000E+00  0.000E+00  1.33249E+02  2.099E+00  4.323E+00  9.185E-04  2.148E-03  2.388E-04
   1    4   31     1    31    7.6381E+00  2.3862E-03   7.6358E+00  0.000E+00  0.000E+00  0.000E+00  1.32948E+02  2.098E+00  4.323E+00  9.184E-04  2.149E-03  2.371E-04
   1    4   32     1    32    7.6358E+00  2.3856E-03   7.6334E+00  0.000E+00  0.000E+00  0.000E+00  1.32648E+02  2.098E+00  4.323E+00  9.183E-04  2.151E-03  2.348E-04
   1    4   33     1    33    7.6334E+00  2.3851E-03   7.6310E+00  0.000E+00  0.000E+00  0.000E+00  1.32348E+02  2.098E+00  4.322E+00  9.182E-04  2.161E-03  2.243E-04
   1    4   34     1    34    7.6310E+00  2.3845E-03   7.6286E+00  0.000E+00  0.000E+00  0.000E+00  1.32047E+02  2.097E+00  4.322E+00  9.180E-04  2.183E-03  2.015E-04
   1    4   35     1    35    7.6286E+00  2.3839E-03   7.6262E+00  0.000E+00  0.000E+00  0.000E+00  1.31747E+02  2.097E+00  4.321E+00  9.179E-04  2.185E-03  1.993E-04
   1    4   36     1    36    7.6262E+00  2.3833E-03   7.6238E+00  0.000E+00  0.000E+00  0.000E+00  1.31447E+02  2.097E+00  4.321E+00  9.178E-04  2.186E-03  1.970E-04
   1    4   37     1    37    7.6238E+00  2.3827E-03   7.6214E+00  0.000E+00  0.000E+00  0.000E+00  1.31146E+02  2.096E+00  4.321E+00  9.177E-04  2.188E-03  1.944E-04
   1    4   38     1    38    7.6214E+00  2.3821E-03   7.6191E+00  0.000E+00  0.000E+00  0.000E+00  1.30846E+02  2.096E+00  4.320E+00  9.176E-04  2.191E-03  1.915E-04
   1    4   39     1    39    7.6191E+00  2.3815E-03   7.6167E+00  0.000E+00  0.000E+00  0.000E+00  1.30546E+02  2.096E+00  4.320E+00  9.175E-04  2.193E-03  1.882E-04
   1    4   40     1    40    7.6167E+00  2.3809E-03   7.6143E+00  0.000E+00  0.000E+00  0.000E+00  1.30245E+02  2.095E+00  4.319E+00  9.174E-04  2.245E-03  1.363E-04
   1    4   41     1    41    7.6143E+00  2.3803E-03   7.6119E+00  0.000E+00  0.000E+00  0.000E+00  1.29945E+02  2.095E+00  4.319E+00  9.173E-04  2.265E-03  1.149E-04
   1    4   42     1    42    7.6119E+00  2.3797E-03   7.6095E+00  0.000E+00  0.000E+00  0.000E+00  1.29645E+02  2.095E+00  4.319E+00  9.172E-04  2.270E-03  1.097E-04
   1    4   43     1    43    7.6095E+00  2.3791E-03   7.6072E+00  0.000E+00  0.000E+00  0.000E+00  1.29344E+02  2.094E+00  4.318E+00  9.171E-04  2.275E-03  1.038E-04
   1    4   44     1    44    7.6072E+00  2.3786E-03   7.6048E+00  0.000E+00  0.000E+00  0.000E+00  1.29044E+02  2.094E+00  4.318E+00  9.170E-04  2.281E-03  9.723E-05
   1    4   45     1    45    7.6048E+00  2.3780E-03   7.6024E+00  0.000E+00  0.000E+00  0.000E+00  1.28744E+02  2.094E+00  4.317E+00  9.168E-04  2.288E-03  8.992E-05
   1    4   46     1    46    7.6024E+00  2.3774E-03   7.6000E+00  0.000E+00  0.000E+00  0.000E+00  1.28443E+02  2.093E+00  4.317E+00  9.167E-04  2.295E-03  8.190E-05
   1    4   47     1    47    7.6000E+00  2.3768E-03   7.5977E+00  0.000E+00  0.000E+00  0.000E+00  1.28143E+02  2.093E+00  4.317E+00  9.166E-04  2.303E-03  7.334E-05
   1    4   48     1    48    7.5977E+00  2.3762E-03   7.5953E+00  0.000E+00  0.000E+00  0.000E+00  1.27843E+02  2.093E+00  4.316E+00  9.165E-04  2.313E-03  6.358E-05
   1    4   49     1    49    7.5953E+00  2.3756E-03   7.5929E+00  0.000E+00  0.000E+00  0.000E+00  1.27542E+02  2.092E+00  4.316E+00  9.164E-04  2.322E-03  5.368E-05
   1    4   50     1    50    7.5929E+00  2.3750E-03   7.5905E+00  0.000E+00  0.000E+00  0.000E+00  1.27242E+02  2.092E+00  4.315E+00  9.163E-04  2.108E-03  2.670E-04
   1    4   51     1    51    7.5905E+00  2.3744E-03   7.5882E+00  0.000E+00  0.000E+00  0.000E+00  1.26942E+02  2.092E+00  4.315E+00  9.162E-04  2.156E-03  2.184E-04
   1    4   52     1    52    7.5882E+00  2.3738E-03   7.5858E+00  0.000E+00  0.000E+00  0.000E+00  1.26641E+02  2.091E+00  4.315E+00  9.161E-04  2.171E-03  2.031E-04
   1    4   53     1    53    7.5858E+00  2.3732E-03   7.5834E+00  0.000E+00  0.000E+00  0.000E+00  1.26341E+02  2.091E+00  4.314E+00  9.160E-04  2.167E-03  2.062E-04
   1    4   54     1    54    7.5834E+00  2.3726E-03   7.5810E+00  0.000E+00  0.000E+00  0.000E+00  1.26041E+02  2.091E+00  4.314E+00  9.159E-04  2.146E-03  2.269E-04
   1    4   55     1    55    7.5810E+00  2.3721E-03   7.5787E+00  0.000E+00  0.000E+00  0.000E+00  1.25740E+02  2.090E+00  4.313E+00  9.157E-04  2.094E-03  2.777E-04
   1    4   56     1    56    7.5787E+00  2.3715E-03   7.5763E+00  0.000E+00  0.000E+00  0.000E+00  1.25440E+02  2.090E+00  4.313E+00  9.156E-04  2.291E-03  8.043E-05
   1    4   57     1    57    7.5763E+00  2.3709E-03   7.5739E+00  0.000E+00  0.000E+00  0.000E+00  1.25140E+02  2.090E+00  4.313E+00  9.155E-04  2.302E-03  6.841E-05
   1    4   58     1    58    7.5739E+00  2.3703E-03   7.5715E+00  0.000E+00  0.000E+00  0.000E+00  1.24839E+02  2.089E+00  4.312E+00  9.154E-04  2.292E-03  7.857E-05
   1    4   59     1    59    7.5715E+00  2.3697E-03   7.5692E+00  0.000E+00  0.000E+00  0.000E+00  1.24539E+02  2.089E+00  4.312E+00  9.153E-04  2.283E-03  8.716E-05
   1    4   60     1    60    7.5692E+00  2.3691E-03   7.5668E+00  0.000E+00  0.000E+00  0.000E+00  1.24239E+02  2.089E+00  4.311E+00  9.152E-04  2.274E-03  9.469E-05
   1    4   61     1    61    7.5668E+00  2.3685E-03   7.5644E+00  0.000E+00  0.000E+00  0.000E+00  1.23938E+02  2.088E+00  4.311E+00  9.151E-04  2.267E-03  1.013E-04
   1    4   62     1    62    7.5644E+00  2.3679E-03   7.5621E+00  0.000E+00  0.000E+00  0.000E+00  1.23638E+02  2.088E+00  4.311E+00  9.150E-04  2.261E-03  1.070E-04
   1    4   63     1    63    7.5621E+00  2.3673E-03   7.5597E+00  0.000E+00  0.000E+00  0.000E+00  1.23338E+02  2.088E+00  4.310E+00  9.149E-04  2.256E-03  1.118E-04
   1    4   64     1    64    7.5597E+00  2.3668E-03   7.5573E+00  0.000E+00  0.000E+00  0.000E+00  1.23037E+02  2.087E+00  4.310E+00  9.148E-04  2.251E-03  1.158E-04
   1    4   65     1    65    7.5573E+00  2.3662E-03   7.5550E+00  0.000E+00  0.000E+00  0.000E+00  1.22737E+02  2.087E+00  4.309E+00  9.147E-04  2.247E-03  1.191E-04
   1    4   66     1    66    7.5550E+00  2.3656E-03   7.5526E+00  0.000E+00  0.000E+00  0.000E+00  1.22437E+02  2.087E+00  4.309E+00  9.145E-04  2.180E-03  1.861E-04
   1    4   67     1    67    7.5526E+00  2.3650E-03   7.5502E+00  0.000E+00  0.000E+00  0.000E+00  1.22136E+02  2.086E+00  4.309E+00  9.144E-04  2.177E-03  1.879E-04
   1    4   68     1    68    7.5502E+00  2.3644E-03   7.5479E+00  0.000E+00  0.000E+00  0.000E+00  1.21836E+02  2.086E+00  4.308E+00  9.143E-04  2.175E-03  1.893E-04
   1    4   69     1    69    7.5479E+00  2.3638E-03   7.5455E+00  0.000E+00  0.000E+00  0.000E+00  1.21536E+02  2.086E+00  4.308E+00  9.142E-04  2.174E-03  1.903E-04
   1    4   70     1    70    7.5455E+00  2.3632E-03   7.5431E+00  0.000E+00  0.000E+00  0.000E+00  1.21235E+02  2.085E+00  4.307E+00  9.141E-04  2.172E-03  1.910E-04
   1    4   71     1    71    7.5431E+00  2.3626E-03   7.5408E+00  0.000E+00  0.000E+00  0.000E+00  1.20935E+02  2.085E+00  4.307E+00  9.140E-04  2.171E-03  1.913E-04
   1    4   72     1    72    7.5408E+00  2.3621E-03   7.5384E+00  0.000E+00  0.000E+00  0.000E+00  1.20635E+02  2.085E+00  4.307E+00  9.139E-04  2.171E-03  1.913E-04
   1    4   73     1    73    7.5384E+00  2.3615E-03   7.5361E+00  0.000E+00  0.000E+00  0.000E+00  1.20334E+02  2.084E+00  4.306E+00  9.138E-04  2.170E-03  1.910E-04
   1    4   74     1    74    7.5361E+00  2.3609E-03   7.5337E+00  0.000E+00  0.000E+00  0.000E+00  1.20034E+02  2.084E+00  4.306E+00  9.137E-04  2.170E-03  1.905E-04
   1    4   75     1    75    7.5337E+00  2.3603E-03   7.5313E+00  0.000E+00  0.000E+00  0.000E+00  1.19734E+02  2.084E+00  4.305E+00  9.136E-04  2.144E-03  2.165E-04
   1    4   76     1    76    7.5313E+00  2.3597E-03   7.5290E+00  0.000E+00  0.000E+00  0.000E+00  1.19433E+02  2.083E+00  4.305E+00  9.135E-04  2.144E-03  2.153E-04
   1    4   77     1    77    7.5290E+00  2.3591E-03   7.5266E+00  0.000E+00  0.000E+00  0.000E+00  1.19133E+02  2.083E+00  4.305E+00  9.133E-04  2.145E-03  2.140E-04
   1    4   78     1    78    7.5266E+00  2.3585E-03   7.5243E+00  0.000E+00  0.000E+00  0.000E+00  1.18833E+02  2.083E+00  4.304E+00  9.132E-04  2.146E-03  2.125E-04
   1    4   79     1    79    7.5243E+00  2.3580E-03   7.5219E+00  0.000E+00  0.000E+00  0.000E+00  1.18532E+02  2.082E+00  4.304E+00  9.131E-04  2.147E-03  2.108E-04
   1    4   80     1    80    7.5219E+00  2.3574E-03   7.5195E+00  0.000E+00  0.000E+00  0.000E+00  1.18232E+02  2.082E+00  4.303E+00  9.130E-04  2.148E-03  2.089E-04
   1    4   81     1    81    7.5195E+00  2.3568E-03   7.5172E+00  0.000E+00  0.000E+00  0.000E+00  1.17932E+02  2.082E+00  4.303E+00  9.129E-04  2.150E-03  2.068E-04
   1    4   82     1    82    7.5172E+00  2.3562E-03   7.5148E+00  0.000E+00  0.000E+00  0.000E+00  1.17631E+02  2.081E+00  4.303E+00  9.128E-04  2.152E-03  2.046E-04
   1    4   83     1    83    7.5148E+00  2.3556E-03   7.5125E+00  0.000E+00  0.000E+00  0.000E+00  1.17331E+02  2.081E+00  4.302E+00  9.127E-04  2.134E-03  2.212E-04
   1    4   84     1    84    7.5125E+00  2.3550E-03   7.5101E+00  0.000E+00  0.000E+00  0.000E+00  1.17031E+02  2.081E+00  4.302E+00  9.126E-04  2.136E-03  2.188E-04
   1    4   85     1    85    7.5101E+00  2.3544E-03   7.5078E+00  0.000E+00  0.000E+00  0.000E+00  1.16730E+02  2.080E+00  4.301E+00  9.125E-04  2.138E-03  2.162E-04
   1    4   86     1    86    7.5078E+00  2.3538E-03   7.5054E+00  0.000E+00  0.000E+00  0.000E+00  1.16430E+02  2.080E+00  4.301E+00  9.124E-04  2.140E-03  2.135E-04
   1    4   87     1    87    7.5054E+00  2.3533E-03   7.5031E+00  0.000E+00  0.000E+00  0.000E+00  1.16130E+02  2.080E+00  4.301E+00  9.123E-04  2.143E-03  2.107E-04
   1    4   88     1    88    7.5031E+00  2.3527E-03   7.5007E+00  0.000E+00  0.000E+00  0.000E+00  1.15829E+02  2.079E+00  4.300E+00  9.122E-04  2.145E-03  2.078E-04
   1    4   89     1    89    7.5007E+00  2.3521E-03   7.4984E+00  0.000E+00  0.000E+00  0.000E+00  1.15529E+02  2.079E+00  4.300E+00  9.120E-04  2.147E-03  2.049E-04
   1    4   90     1    90    7.4984E+00  2.3515E-03   7.4960E+00  0.000E+00  0.000E+00  0.000E+00  1.15229E+02  2.079E+00  4.299E+00  9.119E-04  2.150E-03  2.020E-04
   1    4   91     1    91    7.4960E+00  2.3509E-03   7.4937E+00  0.000E+00  0.000E+00  0.000E+00  1.14928E+02  2.078E+00  4.299E+00  9.118E-04  2.152E-03  1.990E-04
   1    4   92     1    92    7.4937E+00  2.3503E-03   7.4913E+00  0.000E+00  0.000E+00  0.000E+00  1.14628E+02  2.078E+00  4.299E+00  9.117E-04  2.154E-03  1.961E-04
   1    4   93     1    93    7.4913E+00  2.3498E-03   7.4890E+00  0.000E+00  0.000E+00  0.000E+00  1.14328E+02  2.078E+00  4.298E+00  9.116E-04  2.157E-03  1.932E-04
   1    4   94     1    94    7.4890E+00  2.3492E-03   7.4866E+00  0.000E+00  0.000E+00  0.000E+00  1.14027E+02  2.077E+00  4.298E+00  9.115E-04  2.159E-03  1.904E-04
   1    4   95     1    95    7.4866E+00  2.3486E-03   7.4843E+00  0.000E+00  0.000E+00  0.000E+00  1.13727E+02  2.077E+00  4.297E+00  9.114E-04  2.161E-03  1.876E-04
   1    4   96     1    96    7.4843E+00  2.3480E-03   7.4819E+00  0.000E+00  0.000E+00  0.000E+00  1.13427E+02  2.077E+00  4.297E+00  9.113E-04  2.163E-03  1.849E-04
   1    4   97     1    97    7.4819E+00  2.3474E-03   7.4796E+00  0.000E+00  0.000E+00  0.000E+00  1.13126E+02  2.076E+00  4.297E+00  9.112E-04  2.165E-03  1.823E-04
   1    4   98     1    98    7.4796E+00  2.3468E-03   7.4772E+00  0.000E+00  0.000E+00  0.000E+00  1.12826E+02  2.076E+00  4.296E+00  9.111E-04  2.167E-03  1.797E-04
   1    4   99     1    99    7.4772E+00  2.3462E-03   7.4749E+00  0.000E+00  0.000E+00  0.000E+00  1.12526E+02  2.076E+00  4.296E+00  9.110E-04  2.169E-03  1.773E-04
   1    4  100     1   100    7.4749E+00  2.3457E-03   7.4725E+00  0.000E+00  0.000E+00  0.000E+00  1.12225E+02  2.075E+00  4.295E+00  9.108E-04  2.171E-03  1.748E-04



1
  VOLUMETRIC BUDGET FOR UNSATURATED ZONE BENEATH STREAMS AT END OF TIME STEP    30 STRESS PERIOD  30
  ------------------------------------------------------------------------------------------------

    CUMULATIVE VOLUMES             L**3    RATES FOR THIS TIME STEP         L**3/T
    ------------------                     ------------------------


          STREAM LOSS =     28854238.0000            STREAM LOSS =            0.2375
    CHANGE IN STORAGE =      1461105.7500      CHANGE IN STORAGE =        1.9958E-02
       RECHARGE TO GW =     27399952.0000         RECHARGE TO GW =            0.2175

             TOTAL IN =     28854238.0000               TOTAL IN =            0.2375

            TOTAL OUT =     28861058.0000              TOTAL OUT =            0.2375

             IN - OUT =        -6820.0000               IN - OUT =       -1.4901E-08

  PERCENT DISCREPANCY =           -0.01      PERCENT DISCREPANCY =            -0.00



1
              HEAD IN LAYER 1 AT END OF TIME STEP 30 IN STRESS PERIOD 30
  ---------------------------------------------------------------------------

          1      2      3      4      5      6      7      8      9     10
         11     12     13     14     15     16     17     18     19     20
         21     22     23     24     25     26     27     28     29     30
         31     32     33     34     35     36     37     38     39     40
         41     42     43     44     45     46     47     48     49     50
         51     52     53     54     55     56     57     58     59     60
         61     62     63     64     65     66     67     68     69     70
         71     72     73     74     75     76     77     78     79     80
         81     82     83     84     85     86     87     88     89     90
         91     92     93     94     95     96     97     98     99    100
 .........................................................................
   1  94.5 94.5 94.4 94.3 94.1 93.9 93.7 93.4 93.0 92.7
      92.3 91.8 91.3 90.7 90.1 89.5 88.8 88.0 87.3 86.4
      85.5 84.6 83.6 82.5 81.4 80.2 79.0 77.7 76.3 74.9
      73.4 71.8 70.1 68.3 66.5 64.5 62.4 60.2 57.9 55.5
      52.9 50.1 47.1 43.8 40.3 36.4 32.1 27.0 20.9 14.1
      13.0 13.0 13.1 13.7 15.5 19.4 23.7 27.7 31.3 34.5
      37.4 40.1 42.6 44.9 47.0 49.0 50.9 52.6 54.2 55.8
      57.2 58.5 59.8 61.0 62.1 63.1 64.1 65.0 65.9 66.7
      67.5 68.2 68.8 69.4 70.0 70.5 71.0 71.5 71.9 72.3
      72.7 73.0 73.3 73.6 73.9 74.2 74.4 74.6 74.8 75.0
   2  94.5 94.5 94.4 94.3 94.1 93.9 93.7 93.4 93.1 92.7
      92.3 91.8 91.3 90.7 90.1 89.5 88.8 88.1 87.3 86.4
      85.5 84.6 83.6 82.5 81.4 80.2 79.0 77.7 76.3 74.9
      73.4 71.8 70.1 68.3 66.5 64.5 62.4 60.2 57.9 55.5
      52.9 50.1 47.1 43.8 40.3 36.4 32.1 27.0 20.7 12.3
      12.8 13.0 13.0 13.4 14.9 19.2 23.6 27.7 31.3 34.5
      37.4 40.1 42.6 44.9 47.0 49.0 50.9 52.6 54.2 55.8
      57.2 58.5 59.8 61.0 62.1 63.1 64.1 65.0 65.9 66.7
      67.5 68.2 68.8 69.4 70.0 70.5 71.0 71.5 71.9 72.3
      72.7 73.0 73.3 73.6 73.9 74.2 74.4 74.6 74.8 75.0
   3  94.5 94.5 94.4 94.3 94.1 93.9 93.7 93.4 93.1 92.7
      92.3 91.8 91.3 90.7 90.1 89.5 88.8 88.1 87.3 86.4
      85.5 84.6 83.6 82.5 81.4 80.2 79.0 77.7 76.3 74.9
      73.4 71.8 70.1 68.3 66.5 64.5 62.4 60.2 57.9 55.5
      52.9 50.1 47.1 43.9 40.3 36.5 32.1 27.1 20.5 7.3
      12.6 13.1 12.9 12.8 13.4 18.7 23.5 27.6 31.3 34.5
      37.4 40.1 42.6 44.9 47.0 49.0 50.9 52.6 54.2 55.8
      57.2 58.5 59.8 61.0 62.1 63.1 64.1 65.0 65.9 66.7
      67.5 68.2 68.8 69.4 70.0 70.5 71.0 71.5 71.9 72.3
      72.7 73.0 73.3 73.6 73.9 74.2 74.4 74.6 74.8 75.0
   4  94.6 94.5 94.4 94.3 94.1 93.9 93.7 93.4 93.1 92.7
      92.3 91.8 91.3 90.7 90.1 89.5 88.8 88.1 87.3 86.4
      85.5 84.6 83.6 82.5 81.4 80.2 79.0 77.7 76.3 74.9
      73.4 71.8 70.1 68.3 66.5 64.5 62.4 60.3 57.9 55.5
      52.9 50.1 47.1 43.9 40.4 36.5 32.2 27.2 21.1 12.5
      13.3 13.2 12.9 12.2 10.9 18.2 23.4 27.6 31.3 34.5
      37.5 40.1 42.6 44.9 47.0 49.0 50.9 52.6 54.2 55.8
      57.2 58.5 59.8 61.0 62.1 63.2 64.1 65.0 65.9 66.7
      67.5 68.2 68.8 69.4 70.0 70.5 71.0 71.5 71.9 72.3
      72.7 73.0 73.3 73.6 73.9 74.2 74.4 74.6 74.8 75.0
   5  94.5 94.5 94.4 94.3 94.1 93.9 93.7 93.4 93.1 92.7
      92.3 91.8 91.3 90.7 90.1 89.5 88.8 88.1 87.3 86.4
      85.5 84.6 83.6 82.5 81.4 80.2 79.0 77.7 76.3 74.9
      73.4 71.8 70.1 68.3 66.5 64.5 62.4 60.2 57.9 55.5
      52.9 50.1 47.1 43.9 40.3 36.5 32.2 27.3 21.7 15.3
      14.0 13.4 12.7 11.6 6.1 17.6 23.3 27.6 31.2 34.5
      37.4 40.1 42.6 44.9 47.0 49.0 50.9 52.6 54.2 55.8
      57.2 58.5 59.8 61.0 62.1 63.1 64.1 65.0 65.9 66.7
      67.5 68.2 68.8 69.4 70.0 70.5 71.0 71.5 71.9 72.3
      72.7 73.0 73.3 73.6 73.9 74.2 74.4 74.6 74.8 75.0
   6  94.5 94.5 94.4 94.3 94.1 93.9 93.7 93.4 93.1 92.7
      92.3 91.8 91.3 90.7 90.1 89.5 88.8 88.1 87.3 86.4
      85.5 84.6 83.6 82.5 81.4 80.2 79.0 77.7 76.3 74.9
      73.4 71.8 70.1 68.3 66.5 64.5 62.4 60.2 57.9 55.5
      52.9 50.1 47.1 43.8 40.3 36.5 32.2 27.5 22.2 17.0
      14.7 13.5 12.7 11.8 10.7 17.8 23.2 27.5 31.2 34.5
      37.4 40.1 42.6 44.9 47.0 49.0 50.9 52.6 54.2 55.8
      57.2 58.5 59.8 61.0 62.1 63.1 64.1 65.0 65.9 66.7
      67.5 68.2 68.8 69.4 70.0 70.5 71.0 71.5 71.9 72.3
      72.7 73.0 73.3 73.6 73.9 74.2 74.4 74.6 74.8 75.0
   7  94.5 94.5 94.4 94.3 94.1 93.9 93.7 93.4 93.0 92.7
      92.3 91.8 91.3 90.7 90.1 89.5 88.8 88.0 87.3 86.4
      85.5 84.6 83.6 82.5 81.4 80.2 79.0 77.7 76.3 74.9
      73.4 71.8 70.1 68.3 66.5 64.5 62.4 60.2 57.9 55.5
      52.9 50.1 47.1 43.8 40.3 36.5 32.3 27.6 22.5 17.7
      15.0 13.6 12.7 12.0 12.3 18.0 23.2 27.5 31.2 34.5
      37.4 40.1 42.6 44.9 47.0 49.0 50.9 52.6 54.2 55.8
      57.2 58.5 59.8 61.0 62.1 63.1 64.1 65.0 65.9 66.7
      67.5 68.2 68.8 69.4 70.0 70.5 71.0 71.5 71.9 72.3
      72.7 73.0 73.3 73.6 73.9 74.2 74.4 74.6 74.8 75.0

 HEAD WILL BE SAVED ON UNIT   51 AT END OF TIME STEP   30, STRESS PERIOD   30
1
  VOLUMETRIC BUDGET FOR ENTIRE MODEL AT END OF TIME STEP   30, STRESS PERIOD  30
  ------------------------------------------------------------------------------

     CUMULATIVE VOLUMES      L**3       RATES FOR THIS TIME STEP      L**3/T
     ------------------                 ------------------------

           IN:                                      IN:
           ---                                      ---
             STORAGE     =    98525232.0000               STORAGE     =           0.4304
       CONSTANT HEAD     =           0.0000         CONSTANT HEAD     =           0.0000
               WELLS     =           0.0000                 WELLS     =           0.0000
     HEAD DEP BOUNDS     =      229683.9375       HEAD DEP BOUNDS     =       3.1795E-02
      STREAM LEAKAGE     =    27399912.0000        STREAM LEAKAGE     =           0.2175

                TOTAL IN =   126154824.0000                  TOTAL IN =           0.6798

          OUT:                                     OUT:
          ----                                     ----
             STORAGE     =     3260781.5000               STORAGE     =       1.7521E-02
       CONSTANT HEAD     =           0.0000         CONSTANT HEAD     =           0.0000
               WELLS     =   106508200.0000                 WELLS     =           0.6622
     HEAD DEP BOUNDS     =    16385952.0000       HEAD DEP BOUNDS     =           0.0000
      STREAM LEAKAGE     =           0.0000        STREAM LEAKAGE     =           0.0000

               TOTAL OUT =   126154936.0000                 TOTAL OUT =           0.6798

                IN - OUT =        -112.0000                  IN - OUT =           0.0000

     PERCENT DISCREPANCY =          -0.00         PERCENT DISCREPANCY =           0.00






         TIME SUMMARY AT END OF TIME STEP   30 IN STRESS PERIOD   30
                    SECONDS     MINUTES      HOURS       DAYS        YEARS
                    -----------------------------------------------------------
   TIME STEP LENGTH 2.49961E+05  4166.0      69.434      2.8931     7.92080E-03
 STRESS PERIOD TIME 2.59200E+06  43200.      720.00      30.000     8.21355E-02
         TOTAL TIME 7.77600E+07 1.29600E+06  21600.      900.00      2.4641    
1
1
                            STRESS PERIOD NO.   31, LENGTH =   2592000.    
                            -----------------------------------------------

                              NUMBER OF TIME STEPS =    30

                               MULTIPLIER FOR DELT =     1.100

                            INITIAL TIME STEP SIZE =   15757.40    

 REUSING NON-PARAMETER WELLS FROM LAST STRESS PERIOD

      1 WELL 

 REUSING NON-PARAMETER GHB CELLS FROM LAST STRESS PERIOD

      7 GHB CELLS



 CLASSIFICATION & COUNT OF STREAM SEGMENTS BASED ON SOURCE OF INFLOW:

                HEADWATER     DIVERSION     RECEIVES TRIBUTARY FLOW
                ---------     ---------     -----------------------
                     1              0               0



                    INPUT DATA FOR EACH STREAM SEGMENT
 ---------------------------------------------------------------------------------------------

 SEGMENT    SEG.     INFLOW   OVERLAND   STREAM    STREAM   ICALC  OUTFLOW  DIVERSION PRIORITY
    NO.    LENGTH     RATE     RUNOFF      ET       PPT.    METH.  TO SEG.  FROM SEG.    NO.

      1  2.000E+04 5.460E+00 0.000E+00 0.000E+00 0.000E+00    2        0        0        0


         STREAMBED PROPERTIES AND STREAM DIMENSIONS

 SEGMENT     BED HYD. COND.      BED THICKNESS     ELEV.-TOP OF BED     WIDTH OF STREAM     DEPTH OF STREAM    STREAM ROUGHNESS
    No.     UPPER     LOWER     UPPER     LOWER     UPPER     LOWER     UPPER     LOWER     UPPER     LOWER   CHANNEL      BANK

     1  3.500E-07 3.500E-07                                                                                 3.000E-02 4.000E-02

  EIGHT POINT CROSS-SECTION DATA FOR SEGMENTS WITH ICALC = 2
    X VALUES X VALUES START FROM LEFT SIDE LOOKING DOWNSTREAM

     SEGMENT NO.        X1        X2        X3        X4        X5        X6        X7        X8
            1      0.000E+00 2.000E+00 4.000E+00 6.000E+00 8.000E+00 1.000E+01 1.200E+01 1.400E+01

    Z VALUES ARE RELATIVE TO STREAMBED ELEVATION

     SEGMENT NO.          Z1        Z2        Z3        Z4        Z5        Z6        Z7        Z8
            1      6.000E+00 4.500E+00 3.500E+00 0.000E+00 3.000E-01 3.500E+00 4.500E+00 6.000E+00



 
 SOLVING FOR HEAD 
                                                   Max.-Head-Change                         Max.-Flux-Residual
  Residual-Control   Outer-Iter.   Inner-Iter.     Column Row Layer    Maximum-Head-Change  Column Row Layer    Maximum-Flux-Residual          L2-NORM 
          0                 1           2            50    3     1      -0.6088969764E+00      50    3    1        -0.2097552242E+00      0.2682619578E+00
          0                 2           2            50    3     1       0.6421652050E-01      50    3    1         0.2278192180E-01      0.2841817790E-01
          0                 3           2            50    3     1      -0.5673805104E-02      50    3    1        -0.2035274571E-02      0.2547418731E-02
          0                 4           2            50    3     1       0.4499872373E-03      50    3    1         0.1631499012E-03      0.2042567404E-03
          0                 5           1            50    3     1      -0.3132488610E-04      50    3    1        -0.1146849390E-04      0.1436234052E-04
          0                 6           1            50    3     1       0.1880557887E-05      50    3    1         0.6949491707E-06      0.8704049497E-06
          0                 7           1            50    3     1      -0.9501699893E-07      50    3    1        -0.3543550836E-07      0.4438372561E-07

    ------------------------------------------------
       NWT REQUIRED            7 OUTER ITERATIONS 
       AND A TOTAL OF         11 INNER ITERATIONS.
    ------------------------------------------------

 NO OUTPUT CONTROL FOR STRESS PERIOD   31   TIME STEP    1
 
 WELLS WITH REDUCED PUMPING FOR STRESS PERIOD    31 TIME STEP     1
   LAY   ROW   COL         APPL.Q          ACT.Q        GW-HEAD       CELL-BOT
     1     3    50  -0.799690E+00  -0.524582E+00   0.678223E+01   0.000000E+00
     1     5    55  -0.799690E+00  -0.412253E+00   0.566483E+01   0.000000E+00
 
 
 SOLVING FOR HEAD 
                                                   Max.-Head-Change                         Max.-Flux-Residual
  Residual-Control   Outer-Iter.   Inner-Iter.     Column Row Layer    Maximum-Head-Change  Column Row Layer    Maximum-Flux-Residual          L2-NORM 
          0                 1           2            50    3     1      -0.3910753357E+00      50    3    1        -0.1259311141E+00      0.1623852441E+00
          0                 2           2            50    3     1       0.3938255853E-01      50    3    1         0.1303725035E-01      0.1650835878E-01
          0                 3           2            50    3     1      -0.3476244697E-02      50    3    1        -0.1169927418E-02      0.1484885404E-02
          0                 4           2            50    3     1       0.2748996471E-03      50    3    1         0.9374043879E-04      0.1191054180E-03
          0                 5           1            50    3     1      -0.1911470344E-04      50    3    1        -0.6589674209E-05      0.8379527267E-05
          0                 6           1            50    3     1       0.1147000530E-05      50    3    1         0.3993089834E-06      0.5079607069E-06
          0                 7           1            50    3     1      -0.5794576742E-07      50    3    1        -0.2036079189E-07      0.2590475566E-07

    ------------------------------------------------
       NWT REQUIRED            7 OUTER ITERATIONS 
       AND A TOTAL OF         11 INNER ITERATIONS.
    ------------------------------------------------

 NO OUTPUT CONTROL FOR STRESS PERIOD   31   TIME STEP    2
 
 WELLS WITH REDUCED PUMPING FOR STRESS PERIOD    31 TIME STEP     2
   LAY   ROW   COL         APPL.Q          ACT.Q        GW-HEAD       CELL-BOT
     1     3    50  -0.800132E+00  -0.488077E+00   0.642732E+01   0.000000E+00
     1     5    55  -0.800132E+00  -0.382200E+00   0.538472E+01   0.000000E+00
 
 
 SOLVING FOR HEAD 
                                                   Max.-Head-Change                         Max.-Flux-Residual
  Residual-Control   Outer-Iter.   Inner-Iter.     Column Row Layer    Maximum-Head-Change  Column Row Layer    Maximum-Flux-Residual          L2-NORM 
          0                 1           2            50    3     1      -0.2483938542E+00      50    3    1        -0.7357073679E-01      0.9835415017E-01
          0                 2           2            50    3     1       0.2434882973E-01      50    3    1         0.7455061192E-02      0.9761359170E-02
          0                 3           2            50    3     1      -0.2141186187E-02      50    3    1        -0.6702471864E-03      0.8782087938E-03
          0                 4           2            50    3     1       0.1687892617E-03      50    3    1         0.5369328056E-04      0.7049713952E-04
          0                 5           1            50    3     1      -0.1171891096E-04      50    3    1        -0.3774542308E-05      0.4964438109E-05
          0                 6           1            50    3     1       0.7027476381E-06      50    3    1         0.2287221906E-06      0.3011173796E-06

    ------------------------------------------------
       NWT REQUIRED            6 OUTER ITERATIONS 
       AND A TOTAL OF         10 INNER ITERATIONS.
    ------------------------------------------------

 NO OUTPUT CONTROL FOR STRESS PERIOD   31   TIME STEP    3
 
 WELLS WITH REDUCED PUMPING FOR STRESS PERIOD    31 TIME STEP     3
   LAY   ROW   COL         APPL.Q          ACT.Q        GW-HEAD       CELL-BOT
     1     3    50  -0.799897E+00  -0.464116E+00   0.620129E+01   0.000000E+00
     1     5    55  -0.799897E+00  -0.362844E+00   0.520630E+01   0.000000E+00
 
 
 SOLVING FOR HEAD 
                                                   Max.-Head-Change                         Max.-Flux-Residual
  Residual-Control   Outer-Iter.   Inner-Iter.     Column Row Layer    Maximum-Head-Change  Column Row Layer    Maximum-Flux-Residual          L2-NORM 
          0                 1           2            50    3     1      -0.1593062434E+00      50    3    1        -0.4280154975E-01      0.6243798251E-01
          0                 2           2            50    3     1       0.1534258263E-01      50    3    1         0.4301074004E-02      0.6083762712E-02
          0                 3           2            50    3     1      -0.1341350198E-02      50    3    1        -0.3869711824E-03      0.5466930439E-03
          0                 4           1            50    3     1       0.1053292951E-03      50    3    1         0.3099773687E-04      0.4395854689E-04
          0                 5           1            50    3     1      -0.7297995863E-05      50    3    1        -0.2179087445E-05      0.3101570563E-05
          0                 6           1            50    3     1       0.4372213717E-06      50    3    1         0.1320433350E-06      0.1883824457E-06

    ------------------------------------------------
       NWT REQUIRED            6 OUTER ITERATIONS 
       AND A TOTAL OF          9 INNER ITERATIONS.
    ------------------------------------------------

 NO OUTPUT CONTROL FOR STRESS PERIOD   31   TIME STEP    4
 
 WELLS WITH REDUCED PUMPING FOR STRESS PERIOD    31 TIME STEP     4
   LAY   ROW   COL         APPL.Q          ACT.Q        GW-HEAD       CELL-BOT
     1     3    50  -0.800110E+00  -0.448820E+00   0.605608E+01   0.000000E+00
     1     5    55  -0.800110E+00  -0.350645E+00   0.509198E+01   0.000000E+00
 
 
 SOLVING FOR HEAD 
                                                   Max.-Head-Change                         Max.-Flux-Residual
  Residual-Control   Outer-Iter.   Inner-Iter.     Column Row Layer    Maximum-Head-Change  Column Row Layer    Maximum-Flux-Residual          L2-NORM 
          0                 1           2            50    3     1      -0.1037217845E+00      50    3    1        -0.2489356519E-01      0.4305227207E-01
          0                 2           2            50    3     1       0.9848677136E-02      50    3    1         0.2495659784E-02      0.4136186731E-02
          0                 3           2            50    3     1      -0.8547329812E-03      50    3    1        -0.2245857094E-03      0.3716114981E-03
          0                 4           1            50    3     1       0.6680417129E-04      50    3    1         0.1798963417E-04      0.2998270634E-04
          0                 5           1            50    3     1      -0.4616431488E-05      50    3    1        -0.1264627857E-05      0.2123091124E-05
          0                 6           1            50    3     1       0.2762019146E-06      50    3    1         0.7663008783E-07      0.1293012950E-06

    ------------------------------------------------
       NWT REQUIRED            6 OUTER ITERATIONS 
       AND A TOTAL OF          9 INNER ITERATIONS.
    ------------------------------------------------

 NO OUTPUT CONTROL FOR STRESS PERIOD   31   TIME STEP    5
 
 WELLS WITH REDUCED PUMPING FOR STRESS PERIOD    31 TIME STEP     5
   LAY   ROW   COL         APPL.Q          ACT.Q        GW-HEAD       CELL-BOT
     1     3    50  -0.800055E+00  -0.438700E+00   0.596142E+01   0.000000E+00
     1     5    55  -0.800055E+00  -0.342681E+00   0.501795E+01   0.000000E+00
 
 
 SOLVING FOR HEAD 
                                                   Max.-Head-Change                         Max.-Flux-Residual
  Residual-Control   Outer-Iter.   Inner-Iter.     Column Row Layer    Maximum-Head-Change  Column Row Layer    Maximum-Flux-Residual          L2-NORM 
          0                 1           2            50    3     1      -0.6970252781E-01      50    3    1        -0.1471681528E-01      0.3312795625E-01
          0                 2           2            50    2     1       0.6815437780E-02      50    3    1         0.1475976631E-02      0.3165626346E-02
          0                 3           2            50    2     1      -0.6057679798E-03      50    3    1        -0.1328205626E-03      0.2852442522E-03
          0                 4           1            50    2     1       0.4798497793E-04      50    3    1         0.1063910738E-04      0.2313378395E-04
          0                 5           1            50    2     1      -0.3339201905E-05      50    3    1        -0.7478865192E-06      0.1646285346E-05
          0                 6           1            50    2     1       0.2004104254E-06      50    3    1         0.4531714537E-07      0.1006554848E-06

    ------------------------------------------------
       NWT REQUIRED            6 OUTER ITERATIONS 
       AND A TOTAL OF          9 INNER ITERATIONS.
    ------------------------------------------------

 NO OUTPUT CONTROL FOR STRESS PERIOD   31   TIME STEP    6
 
 WELLS WITH REDUCED PUMPING FOR STRESS PERIOD    31 TIME STEP     6
   LAY   ROW   COL         APPL.Q          ACT.Q        GW-HEAD       CELL-BOT
     1     3    50  -0.799954E+00  -0.431845E+00   0.589773E+01   0.000000E+00
     1     5    55  -0.799954E+00  -0.337366E+00   0.496869E+01   0.000000E+00
 
 
 SOLVING FOR HEAD 
                                                   Max.-Head-Change                         Max.-Flux-Residual
  Residual-Control   Outer-Iter.   Inner-Iter.     Column Row Layer    Maximum-Head-Change  Column Row Layer    Maximum-Flux-Residual          L2-NORM 
          0                 1           2            50    2     1      -0.6245708169E-01      50    3    1        -0.9010146675E-02      0.2807426128E-01
          0                 2           2            50    2     1       0.6135376914E-02      50    3    1         0.9049886199E-03      0.2689521130E-02
          0                 3           2            50    2     1      -0.5453333398E-03      50    3    1        -0.8142732867E-04      0.2435755673E-03
          0                 4           1            50    2     1       0.4319384173E-04      50    3    1         0.6522510946E-05      0.1986650954E-04
          0                 5           1            50    2     1      -0.3005568495E-05      50    3    1        -0.4584896464E-06      0.1421150623E-05
          0                 6           1            50    2     1       0.1803753451E-06      50    3    1         0.2778058356E-07      0.8726107326E-07

    ------------------------------------------------
       NWT REQUIRED            6 OUTER ITERATIONS 
       AND A TOTAL OF          9 INNER ITERATIONS.
    ------------------------------------------------

 NO OUTPUT CONTROL FOR STRESS PERIOD   31   TIME STEP    7
 
 WELLS WITH REDUCED PUMPING FOR STRESS PERIOD    31 TIME STEP     7
   LAY   ROW   COL         APPL.Q          ACT.Q        GW-HEAD       CELL-BOT
     1     3    50  -0.799908E+00  -0.427021E+00   0.585283E+01   0.000000E+00
     1     5    55  -0.799908E+00  -0.333687E+00   0.493444E+01   0.000000E+00
 
 
 SOLVING FOR HEAD 
                                                   Max.-Head-Change                         Max.-Flux-Residual
  Residual-Control   Outer-Iter.   Inner-Iter.     Column Row Layer    Maximum-Head-Change  Column Row Layer    Maximum-Flux-Residual          L2-NORM 
          0                 1           2            50    2     1      -0.5596566872E-01      50    2    1        -0.7328554250E-02      0.2533211888E-01
          0                 2           2            50    2     1       0.5494450215E-02      50    2    1         0.7294817342E-03      0.2439150923E-02
          0                 3           2            50    2     1      -0.4883150422E-03      50    2    1        -0.6568793998E-04      0.2220181159E-03
          0                 4           1            50    2     1       0.3867353120E-04      50    2    1         0.5261320800E-05      0.1820293497E-04
          0                 5           1            50    2     1      -0.2690789782E-05      50    2    1        -0.3698675733E-06      0.1308488816E-05
          0                 6           1            50    2     1       0.1614727354E-06      50    2    1         0.2241250480E-07      0.8067669161E-07

    ------------------------------------------------
       NWT REQUIRED            6 OUTER ITERATIONS 
       AND A TOTAL OF          9 INNER ITERATIONS.
    ------------------------------------------------

 NO OUTPUT CONTROL FOR STRESS PERIOD   31   TIME STEP    8
 
 WELLS WITH REDUCED PUMPING FOR STRESS PERIOD    31 TIME STEP     8
   LAY   ROW   COL         APPL.Q          ACT.Q        GW-HEAD       CELL-BOT
     1     3    50  -0.799929E+00  -0.423455E+00   0.581937E+01   0.000000E+00
     1     5    55  -0.799929E+00  -0.331011E+00   0.490928E+01   0.000000E+00
 
 
 SOLVING FOR HEAD 
                                                   Max.-Head-Change                         Max.-Flux-Residual
  Residual-Control   Outer-Iter.   Inner-Iter.     Column Row Layer    Maximum-Head-Change  Column Row Layer    Maximum-Flux-Residual          L2-NORM 
          0                 1           2            50    2     1      -0.5023143814E-01      50    2    1        -0.5970225109E-02      0.2368257409E-01
          0                 2           2            50    2     1       0.4929894387E-02      50    2    1         0.5942557854E-03      0.2290088297E-02
          0                 3           2            50    2     1      -0.4380504871E-03      50    2    1        -0.5351119832E-04      0.2093120218E-03
          0                 4           1            50    2     1       0.3468801568E-04      50    2    1         0.4286017025E-05      0.1724162467E-04
          0                 5           1            50    2     1      -0.2413219671E-05      50    2    1        -0.3013043186E-06      0.1245074335E-05
          0                 6           1            50    2     1       0.1448034076E-06      50    2    1         0.1825784388E-07      0.7707889726E-07

    ------------------------------------------------
       NWT REQUIRED            6 OUTER ITERATIONS 
       AND A TOTAL OF          9 INNER ITERATIONS.
    ------------------------------------------------

 NO OUTPUT CONTROL FOR STRESS PERIOD   31   TIME STEP    9
 
 WELLS WITH REDUCED PUMPING FOR STRESS PERIOD    31 TIME STEP     9
   LAY   ROW   COL         APPL.Q          ACT.Q        GW-HEAD       CELL-BOT
     1     3    50  -0.799967E+00  -0.420664E+00   0.579310E+01   0.000000E+00
     1     5    55  -0.799967E+00  -0.328947E+00   0.488977E+01   0.000000E+00
 
 
 SOLVING FOR HEAD 
                                                   Max.-Head-Change                         Max.-Flux-Residual
  Residual-Control   Outer-Iter.   Inner-Iter.     Column Row Layer    Maximum-Head-Change  Column Row Layer    Maximum-Flux-Residual          L2-NORM 
          0                 1           2            50    2     1      -0.4532921818E-01      50    2    1        -0.4871526916E-02      0.2258605324E-01
          0                 2           2            50    1     1       0.4466438483E-02      50    2    1         0.4850134382E-03      0.2190171011E-02
          0                 3           2            50    1     1      -0.3980342140E-03      50    2    1        -0.4367296047E-04      0.2008313681E-03
          0                 4           1            50    1     1       0.3157669531E-04      50    2    1         0.3498026851E-05      0.1661438950E-04
          0                 5           1            50    1     1      -0.2198580074E-05      50    2    1        -0.2459090350E-06      0.1205131970E-05
          0                 6           1            50    1     1       0.1319689085E-06      50    2    1         0.1490111043E-07      0.7491145662E-07

    ------------------------------------------------
       NWT REQUIRED            6 OUTER ITERATIONS 
       AND A TOTAL OF          9 INNER ITERATIONS.
    ------------------------------------------------

 NO OUTPUT CONTROL FOR STRESS PERIOD   31   TIME STEP   10
 
 WELLS WITH REDUCED PUMPING FOR STRESS PERIOD    31 TIME STEP    10
   LAY   ROW   COL         APPL.Q          ACT.Q        GW-HEAD       CELL-BOT
     1     3    50  -0.799932E+00  -0.418349E+00   0.577164E+01   0.000000E+00
     1     5    55  -0.799932E+00  -0.327255E+00   0.487402E+01   0.000000E+00
 
 
 SOLVING FOR HEAD 
                                                   Max.-Head-Change                         Max.-Flux-Residual
  Residual-Control   Outer-Iter.   Inner-Iter.     Column Row Layer    Maximum-Head-Change  Column Row Layer    Maximum-Flux-Residual          L2-NORM 
          0                 1           2            50    1     1      -0.4443595555E-01      50    2    1        -0.3996552741E-02      0.2182292384E-01
          0                 2           2            50    1     1       0.4387908617E-02      50    2    1         0.3980640941E-03      0.2119738200E-02
          0                 3           2            50    1     1      -0.3910113376E-03      50    2    1        -0.3584198336E-04      0.1948783007E-03
          0                 4           1            50    1     1       0.3101743645E-04      50    2    1         0.2870810652E-05      0.1618659160E-04
          0                 5           1            50    1     1      -0.2159323005E-05      50    2    1        -0.2018160557E-06      0.1179207352E-05
          0                 6           1            50    1     1       0.1295951474E-06      50    2    1         0.1222925111E-07      0.7360161686E-07

    ------------------------------------------------
       NWT REQUIRED            6 OUTER ITERATIONS 
       AND A TOTAL OF          9 INNER ITERATIONS.
    ------------------------------------------------

 NO OUTPUT CONTROL FOR STRESS PERIOD   31   TIME STEP   11
 
 WELLS WITH REDUCED PUMPING FOR STRESS PERIOD    31 TIME STEP    11
   LAY   ROW   COL         APPL.Q          ACT.Q        GW-HEAD       CELL-BOT
     1     3    50  -0.800026E+00  -0.416415E+00   0.575312E+01   0.000000E+00
     1     5    55  -0.800026E+00  -0.325857E+00   0.486053E+01   0.000000E+00
 
 
 SOLVING FOR HEAD 
                                                   Max.-Head-Change                         Max.-Flux-Residual
  Residual-Control   Outer-Iter.   Inner-Iter.     Column Row Layer    Maximum-Head-Change  Column Row Layer    Maximum-Flux-Residual          L2-NORM 
          0                 1           2            50    1     1      -0.4303351600E-01      50    1    1        -0.3559466560E-02      0.2124509964E-01
          0                 2           2            50    1     1       0.4247460655E-02      50    1    1         0.3550453434E-03      0.2065415616E-02
          0                 3           2            50    1     1      -0.3784475630E-03      50    1    1        -0.3196305607E-04      0.1902944021E-03
          0                 4           1            50    1     1       0.3001775683E-04      50    1    1         0.2560169303E-05      0.1586657805E-04
          0                 5           1            50    1     1      -0.2089282805E-05      50    1    1        -0.1798631534E-06      0.1160881411E-05
          0                 6           1            50    1     1       0.1253675513E-06      50    1    1         0.1089205537E-07      0.7276106122E-07

    ------------------------------------------------
       NWT REQUIRED            6 OUTER ITERATIONS 
       AND A TOTAL OF          9 INNER ITERATIONS.
    ------------------------------------------------

 NO OUTPUT CONTROL FOR STRESS PERIOD   31   TIME STEP   12
 
 WELLS WITH REDUCED PUMPING FOR STRESS PERIOD    31 TIME STEP    12
   LAY   ROW   COL         APPL.Q          ACT.Q        GW-HEAD       CELL-BOT
     1     3    50  -0.800041E+00  -0.414684E+00   0.573688E+01   0.000000E+00
     1     5    55  -0.800041E+00  -0.324613E+00   0.484878E+01   0.000000E+00
 
 
 SOLVING FOR HEAD 
                                                   Max.-Head-Change                         Max.-Flux-Residual
  Residual-Control   Outer-Iter.   Inner-Iter.     Column Row Layer    Maximum-Head-Change  Column Row Layer    Maximum-Flux-Residual          L2-NORM 
          0                 1           2            50    1     1      -0.4120444147E-01      50    1    1        -0.3133892070E-02      0.2079814381E-01
          0                 2           2            50    1     1       0.4065099185E-02      50    1    1         0.3125145385E-03      0.2022564671E-02
          0                 3           2            50    1     1      -0.3621261097E-03      50    1    1        -0.2813500297E-04      0.1867034875E-03
          0                 4           1            50    1     1       0.2871902979E-04      50    1    1         0.2253544429E-05      0.1562422013E-04
          0                 5           1            50    1     1      -0.1998282387E-05      50    1    1        -0.1582753667E-06      0.1147942752E-05
          0                 6           1            50    1     1       0.1198745477E-06      50    1    1         0.9581955784E-08      0.7225097170E-07

    ------------------------------------------------
       NWT REQUIRED            6 OUTER ITERATIONS 
       AND A TOTAL OF          9 INNER ITERATIONS.
    ------------------------------------------------

 NO OUTPUT CONTROL FOR STRESS PERIOD   31   TIME STEP   13
 
 WELLS WITH REDUCED PUMPING FOR STRESS PERIOD    31 TIME STEP    13
   LAY   ROW   COL         APPL.Q          ACT.Q        GW-HEAD       CELL-BOT
     1     3    50  -0.800041E+00  -0.413121E+00   0.572229E+01   0.000000E+00
     1     5    55  -0.800041E+00  -0.323502E+00   0.483834E+01   0.000000E+00
 
 
 SOLVING FOR HEAD 
                                                   Max.-Head-Change                         Max.-Flux-Residual
  Residual-Control   Outer-Iter.   Inner-Iter.     Column Row Layer    Maximum-Head-Change  Column Row Layer    Maximum-Flux-Residual          L2-NORM 
          0                 1           2            50    1     1      -0.3911731166E-01      50    1    1        -0.2728018115E-02      0.2044361403E-01
          0                 2           2            50    1     1       0.3857332928E-02      50    1    1         0.2720055249E-03      0.1988588166E-02
          0                 3           2            50    1     1      -0.3435188483E-03      50    1    1        -0.2448841355E-04      0.1838566362E-03
          0                 4           1            50    1     1       0.2723789662E-04      50    1    1         0.1961458754E-05      0.1543861741E-04
          0                 5           1            50    1     1      -0.1894419250E-05      50    1    1        -0.1377044581E-06      0.1138890730E-05
          0                 6           1            50    1     1       0.1136009176E-06      50    1    1         0.8333160828E-08      0.7197848493E-07

    ------------------------------------------------
       NWT REQUIRED            6 OUTER ITERATIONS 
       AND A TOTAL OF          9 INNER ITERATIONS.
    ------------------------------------------------

 NO OUTPUT CONTROL FOR STRESS PERIOD   31   TIME STEP   14
 
 WELLS WITH REDUCED PUMPING FOR STRESS PERIOD    31 TIME STEP    14
   LAY   ROW   COL         APPL.Q          ACT.Q        GW-HEAD       CELL-BOT
     1     3    50  -0.800017E+00  -0.411681E+00   0.570896E+01   0.000000E+00
     1     5    55  -0.800017E+00  -0.322488E+00   0.482889E+01   0.000000E+00
 
 
 SOLVING FOR HEAD 
                                                   Max.-Head-Change                         Max.-Flux-Residual
  Residual-Control   Outer-Iter.   Inner-Iter.     Column Row Layer    Maximum-Head-Change  Column Row Layer    Maximum-Flux-Residual          L2-NORM 
          0                 1           2            50    1     1      -0.3691025102E-01      50    1    1        -0.2354502995E-02      0.2015894033E-01
          0                 2           2            50    1     1       0.3636897344E-02      50    1    1         0.2347569768E-03      0.1960824550E-02
          0                 3           2            50    1     1      -0.3237863960E-03      50    1    1        -0.2113504346E-04      0.1815685599E-03
          0                 4           1            50    1     1       0.2566773156E-04      50    1    1         0.1692861756E-05      0.1529784474E-04
          0                 5           1            50    1     1      -0.1784236726E-05      50    1    1        -0.1187794616E-06      0.1132911108E-05
          0                 6           1            50    1     1       0.1069407165E-06      50    1    1         0.7183784900E-08      0.7188947818E-07

    ------------------------------------------------
       NWT REQUIRED            6 OUTER ITERATIONS 
       AND A TOTAL OF          9 INNER ITERATIONS.
    ------------------------------------------------

 NO OUTPUT CONTROL FOR STRESS PERIOD   31   TIME STEP   15
 
 WELLS WITH REDUCED PUMPING FOR STRESS PERIOD    31 TIME STEP    15
   LAY   ROW   COL         APPL.Q          ACT.Q        GW-HEAD       CELL-BOT
     1     3    50  -0.800017E+00  -0.410348E+00   0.569651E+01   0.000000E+00
     1     5    55  -0.800017E+00  -0.321552E+00   0.482008E+01   0.000000E+00
 
 
 SOLVING FOR HEAD 
                                                   Max.-Head-Change                         Max.-Flux-Residual
  Residual-Control   Outer-Iter.   Inner-Iter.     Column Row Layer    Maximum-Head-Change  Column Row Layer    Maximum-Flux-Residual          L2-NORM 
          0                 1           2            50    1     1      -0.3468258645E-01      50    1    1        -0.2019838328E-02      0.1992371555E-01
          0                 2           2            50    1     1       0.3414649852E-02      50    1    1         0.2013979111E-03      0.1938087760E-02
          0                 3           2            50    1     1      -0.3037947751E-03      50    1    1        -0.1813167764E-04      0.1797297295E-03
          0                 4           1            50    1     1       0.2407430394E-04      50    1    1         0.1452300395E-05      0.1519226708E-04
          0                 5           1            50    1     1      -0.1672290351E-05      50    1    1        -0.1018200066E-06      0.1129193139E-05
          0                 6           1            50    1     1       0.1001714716E-06      50    1    1         0.6153195287E-08      0.7192729321E-07

    ------------------------------------------------
       NWT REQUIRED            6 OUTER ITERATIONS 
       AND A TOTAL OF          9 INNER ITERATIONS.
    ------------------------------------------------

 NO OUTPUT CONTROL FOR STRESS PERIOD   31   TIME STEP   16
 
 WELLS WITH REDUCED PUMPING FOR STRESS PERIOD    31 TIME STEP    16
   LAY   ROW   COL         APPL.Q          ACT.Q        GW-HEAD       CELL-BOT
     1     3    50  -0.800017E+00  -0.409102E+00   0.568488E+01   0.000000E+00
     1     5    55  -0.800017E+00  -0.320670E+00   0.481178E+01   0.000000E+00
 
 
 SOLVING FOR HEAD 
                                                   Max.-Head-Change                         Max.-Flux-Residual
  Residual-Control   Outer-Iter.   Inner-Iter.     Column Row Layer    Maximum-Head-Change  Column Row Layer    Maximum-Flux-Residual          L2-NORM 
          0                 1           2            50    1     1      -0.3251806188E-01      50    1    1        -0.1725522317E-02      0.1973194070E-01
          0                 2           2            50    1     1       0.3198636609E-02      50    1    1         0.1720688824E-03      0.1919145845E-02
          0                 3           2            50    1     1      -0.2843730722E-03      50    1    1        -0.1549105984E-04      0.1781758804E-03
          0                 4           1            50    1     1       0.2252374227E-04      50    1    1         0.1240794860E-05      0.1510567772E-04
          0                 5           1            50    1     1      -0.1562900669E-05      50    1    1        -0.8689805303E-07      0.1126523445E-05
          0                 6           1            50    1     1       0.9353041782E-07       2    4    1        -0.6020535182E-08      0.7202002092E-07

    ------------------------------------------------
       NWT REQUIRED            6 OUTER ITERATIONS 
       AND A TOTAL OF          9 INNER ITERATIONS.
    ------------------------------------------------

 NO OUTPUT CONTROL FOR STRESS PERIOD   31   TIME STEP   17
 
 WELLS WITH REDUCED PUMPING FOR STRESS PERIOD    31 TIME STEP    17
   LAY   ROW   COL         APPL.Q          ACT.Q        GW-HEAD       CELL-BOT
     1     3    50  -0.800035E+00  -0.407919E+00   0.567375E+01   0.000000E+00
     1     5    55  -0.800035E+00  -0.319835E+00   0.480385E+01   0.000000E+00
 
 
 SOLVING FOR HEAD 
                                                   Max.-Head-Change                         Max.-Flux-Residual
  Residual-Control   Outer-Iter.   Inner-Iter.     Column Row Layer    Maximum-Head-Change  Column Row Layer    Maximum-Flux-Residual          L2-NORM 
          0                 1           2            50    1     1      -0.3047069469E-01      50    1    1        -0.1470881105E-02      0.1957214459E-01
          0                 2           2            50    1     1       0.2993894323E-02      50    1    1         0.1466955075E-03      0.1903423610E-02
          0                 3           2            50    1     1      -0.2659317593E-03      50    1    1        -0.1320656646E-04      0.1769064576E-03
          0                 4           1            50    1     1       0.2104915341E-04      50    1    1         0.1057813995E-05      0.1504087003E-04
          0                 5           1            50    1     1      -0.1458498175E-05      23    4    1         0.8121759620E-07      0.1125056154E-05
          0                 6           1            50    1     1       0.8717258157E-07       2    4    1        -0.6143945797E-08      0.7216571805E-07

    ------------------------------------------------
       NWT REQUIRED            6 OUTER ITERATIONS 
       AND A TOTAL OF          9 INNER ITERATIONS.
    ------------------------------------------------

 NO OUTPUT CONTROL FOR STRESS PERIOD   31   TIME STEP   18
 
 WELLS WITH REDUCED PUMPING FOR STRESS PERIOD    31 TIME STEP    18
   LAY   ROW   COL         APPL.Q          ACT.Q        GW-HEAD       CELL-BOT
     1     3    50  -0.800026E+00  -0.406774E+00   0.566310E+01   0.000000E+00
     1     5    55  -0.800026E+00  -0.319034E+00   0.479634E+01   0.000000E+00
 
 
 SOLVING FOR HEAD 
                                                   Max.-Head-Change                         Max.-Flux-Residual
  Residual-Control   Outer-Iter.   Inner-Iter.     Column Row Layer    Maximum-Head-Change  Column Row Layer    Maximum-Flux-Residual          L2-NORM 
          0                 1           2             1    1     1      -0.2872973091E-01      50    1    1        -0.1253105046E-02      0.1943835836E-01
          0                 2           2            50    1     1       0.2802978692E-02      50    1    1         0.1249944585E-03      0.1890201120E-02
          0                 3           2            50    1     1      -0.2486867408E-03      50    1    1        -0.1125272533E-04      0.1758502713E-03
          0                 4           1            50    1     1       0.1966840275E-04      50    1    1         0.9013172684E-06      0.1499058180E-04
          0                 5           1            50    1     1      -0.1360400821E-05      24    4    1         0.8179144118E-07      0.1124086825E-05
          0                 6           1            50    1     1       0.8118172655E-07       2    4    1        -0.6259135432E-08      0.7231170247E-07

    ------------------------------------------------
       NWT REQUIRED            6 OUTER ITERATIONS 
       AND A TOTAL OF          9 INNER ITERATIONS.
    ------------------------------------------------

 NO OUTPUT CONTROL FOR STRESS PERIOD   31   TIME STEP   19
 
 WELLS WITH REDUCED PUMPING FOR STRESS PERIOD    31 TIME STEP    19
   LAY   ROW   COL         APPL.Q          ACT.Q        GW-HEAD       CELL-BOT
     1     3    50  -0.799983E+00  -0.405664E+00   0.565295E+01   0.000000E+00
     1     5    55  -0.799983E+00  -0.318251E+00   0.478912E+01   0.000000E+00
 
 
 SOLVING FOR HEAD 
                                                   Max.-Head-Change                         Max.-Flux-Residual
  Residual-Control   Outer-Iter.   Inner-Iter.     Column Row Layer    Maximum-Head-Change  Column Row Layer    Maximum-Flux-Residual          L2-NORM 
          0                 1           2             1    1     1      -0.3157903835E-01       1    7    1        -0.1079233866E-02      0.1934263942E-01
          0                 2           2             1    1     1       0.2933076004E-02       1    7    1         0.1079210044E-03      0.1879733812E-02
          0                 3           2             1    1     1      -0.2453090832E-03       1    7    1        -0.9713137432E-05      0.1749688466E-03
          0                 4           1            50    1     1       0.1840693939E-04      31    4    1        -0.8669289073E-06      0.1494934623E-04
          0                 5           1            50    1     1      -0.1270361234E-05      24    4    1         0.8332193957E-07      0.1123108193E-05
          0                 6           1            50    1     1       0.7566115954E-07       2    4    1        -0.6365642236E-08      0.7242317181E-07

    ------------------------------------------------
       NWT REQUIRED            6 OUTER ITERATIONS 
       AND A TOTAL OF          9 INNER ITERATIONS.
    ------------------------------------------------

 NO OUTPUT CONTROL FOR STRESS PERIOD   31   TIME STEP   20
 
 WELLS WITH REDUCED PUMPING FOR STRESS PERIOD    31 TIME STEP    20
   LAY   ROW   COL         APPL.Q          ACT.Q        GW-HEAD       CELL-BOT
     1     3    50  -0.799976E+00  -0.404600E+00   0.564305E+01   0.000000E+00
     1     5    55  -0.799976E+00  -0.317492E+00   0.478198E+01   0.000000E+00
 
 
 SOLVING FOR HEAD 
                                                   Max.-Head-Change                         Max.-Flux-Residual
  Residual-Control   Outer-Iter.   Inner-Iter.     Column Row Layer    Maximum-Head-Change  Column Row Layer    Maximum-Flux-Residual          L2-NORM 
          0                 1           2             3    1     1      -0.3485781599E-01       1    7    1        -0.1078623313E-02      0.1930544904E-01
          0                 2           2             4    1     1       0.3233963467E-02       1    1    1         0.1078613084E-03      0.1871583001E-02
          0                 3           2             4    1     1      -0.2699833428E-03       1    1    1        -0.9707781427E-05      0.1739896746E-03
          0                 4           1             4    1     1       0.2004989595E-04      31    4    1        -0.8772451121E-06      0.1488251624E-04
          0                 5           1             4    1     1      -0.1293713475E-05      24    4    1         0.8460543199E-07      0.1119031829E-05
          0                 6           1            51    1     1       0.7240264004E-07      24    4    1        -0.6396433605E-08      0.7229288887E-07

    ------------------------------------------------
       NWT REQUIRED            6 OUTER ITERATIONS 
       AND A TOTAL OF          9 INNER ITERATIONS.
    ------------------------------------------------

 NO OUTPUT CONTROL FOR STRESS PERIOD   31   TIME STEP   21
 
 WELLS WITH REDUCED PUMPING FOR STRESS PERIOD    31 TIME STEP    21
   LAY   ROW   COL         APPL.Q          ACT.Q        GW-HEAD       CELL-BOT
     1     3    50  -0.800000E+00  -0.403570E+00   0.563332E+01   0.000000E+00
     1     5    55  -0.800000E+00  -0.316747E+00   0.477487E+01   0.000000E+00
 
 
 SOLVING FOR HEAD 
                                                   Max.-Head-Change                         Max.-Flux-Residual
  Residual-Control   Outer-Iter.   Inner-Iter.     Column Row Layer    Maximum-Head-Change  Column Row Layer    Maximum-Flux-Residual          L2-NORM 
          0                 1           2             4    4     1      -0.4023794575E-01       5    5    1        -0.1086185814E-02      0.1947715755E-01
          0                 2           2             4    1     1       0.3642250684E-02       4    3    1         0.1086377654E-03      0.1873399116E-02
          0                 3           2             4    1     1      -0.3031925443E-03       4    3    1        -0.9778263266E-05      0.1731184232E-03
          0                 4           1             4    1     1       0.2242525821E-04      31    4    1        -0.8866656263E-06      0.1478466246E-04
          0                 5           1             4    1     1      -0.1433920972E-05      24    4    1         0.8412418495E-07      0.1110756686E-05
          0                 6           1             1    1     1       0.7901305932E-07      24    4    1        -0.6415312725E-08      0.7185071393E-07

    ------------------------------------------------
       NWT REQUIRED            6 OUTER ITERATIONS 
       AND A TOTAL OF          9 INNER ITERATIONS.
    ------------------------------------------------

 NO OUTPUT CONTROL FOR STRESS PERIOD   31   TIME STEP   22
 
 WELLS WITH REDUCED PUMPING FOR STRESS PERIOD    31 TIME STEP    22
   LAY   ROW   COL         APPL.Q          ACT.Q        GW-HEAD       CELL-BOT
     1     3    50  -0.799995E+00  -0.402545E+00   0.562378E+01   0.000000E+00
     1     5    55  -0.799995E+00  -0.316001E+00   0.476785E+01   0.000000E+00
 
 
 SOLVING FOR HEAD 
                                                   Max.-Head-Change                         Max.-Flux-Residual
  Residual-Control   Outer-Iter.   Inner-Iter.     Column Row Layer    Maximum-Head-Change  Column Row Layer    Maximum-Flux-Residual          L2-NORM 
          0                 1           2             1    4     1      -0.4396848578E-01       4    3    1        -0.1127702662E-02      0.1963870058E-01
          0                 2           2             1    1     1       0.4052575519E-02       4    3    1         0.1127752937E-03      0.1893336593E-02
          0                 3           2             1    1     1      -0.3370340491E-03       4    3    1        -0.1015123752E-04      0.1752404600E-03
          0                 4           1             1    1     1       0.2488438366E-04      31    4    1        -0.8889723908E-06      0.1499941953E-04
          0                 5           1             1    1     1      -0.1579232428E-05      30    4    1         0.8486502701E-07      0.1126374990E-05
          0                 6           1             1    1     1       0.8637301878E-07       7    4    1        -0.6599435665E-08      0.7287221708E-07

    ------------------------------------------------
       NWT REQUIRED            6 OUTER ITERATIONS 
       AND A TOTAL OF          9 INNER ITERATIONS.
    ------------------------------------------------

 NO OUTPUT CONTROL FOR STRESS PERIOD   31   TIME STEP   23
 
 WELLS WITH REDUCED PUMPING FOR STRESS PERIOD    31 TIME STEP    23
   LAY   ROW   COL         APPL.Q          ACT.Q        GW-HEAD       CELL-BOT
     1     3    50  -0.800014E+00  -0.401536E+00   0.561427E+01   0.000000E+00
     1     5    55  -0.800014E+00  -0.315259E+00   0.476077E+01   0.000000E+00
 
 
 SOLVING FOR HEAD 
                                                   Max.-Head-Change                         Max.-Flux-Residual
  Residual-Control   Outer-Iter.   Inner-Iter.     Column Row Layer    Maximum-Head-Change  Column Row Layer    Maximum-Flux-Residual          L2-NORM 
          0                 1           2             1    1     1      -0.4826238055E-01       1    5    1        -0.1131221284E-02      0.1973913601E-01
          0                 2           2             1    1     1       0.4460997823E-02       1    3    1         0.1131146070E-03      0.1906819548E-02
          0                 3           2             1    1     1      -0.3704333371E-03       1    5    1        -0.1018088155E-04      0.1767715178E-03
          0                 4           1             1    1     1       0.2728181531E-04       1    4    1        -0.8300274033E-06      0.1516137676E-04
          0                 5           1             1    1     1      -0.1713659069E-05       7    4    1         0.8700531495E-07      0.1136651140E-05
          0                 6           1             1    1     1       0.9270485052E-07       2    4    1        -0.6761236904E-08      0.7347152740E-07

    ------------------------------------------------
       NWT REQUIRED            6 OUTER ITERATIONS 
       AND A TOTAL OF          9 INNER ITERATIONS.
    ------------------------------------------------

 NO OUTPUT CONTROL FOR STRESS PERIOD   31   TIME STEP   24
 
 WELLS WITH REDUCED PUMPING FOR STRESS PERIOD    31 TIME STEP    24
   LAY   ROW   COL         APPL.Q          ACT.Q        GW-HEAD       CELL-BOT
     1     3    50  -0.799996E+00  -0.400524E+00   0.560491E+01   0.000000E+00
     1     5    55  -0.799996E+00  -0.314504E+00   0.475371E+01   0.000000E+00
 
 
 SOLVING FOR HEAD 
                                                   Max.-Head-Change                         Max.-Flux-Residual
  Residual-Control   Outer-Iter.   Inner-Iter.     Column Row Layer    Maximum-Head-Change  Column Row Layer    Maximum-Flux-Residual          L2-NORM 
          0                 1           3             1    1     1      -0.5305274811E-01       1    5    1        -0.1127510407E-02      0.1979966711E-01
          0                 2           2             1    1     1       0.4896525549E-02       1    5    1         0.1127441588E-03      0.1914467737E-02
          0                 3           2             1    1     1      -0.4057868317E-03       1    5    1        -0.1014758318E-04      0.1776638649E-03
          0                 4           1             1    1     1       0.2979247131E-04      30    4    1        -0.9040770319E-06      0.1526638480E-04
          0                 5           1             1    1     1      -0.1847988767E-05      30    4    1         0.8985475830E-07      0.1141748353E-05
          0                 6           1             1    1     1       0.9866904572E-07       2    4    1        -0.6820584986E-08      0.7369844040E-07

    ------------------------------------------------
       NWT REQUIRED            6 OUTER ITERATIONS 
       AND A TOTAL OF         10 INNER ITERATIONS.
    ------------------------------------------------

 NO OUTPUT CONTROL FOR STRESS PERIOD   31   TIME STEP   25
 
 WELLS WITH REDUCED PUMPING FOR STRESS PERIOD    31 TIME STEP    25
   LAY   ROW   COL         APPL.Q          ACT.Q        GW-HEAD       CELL-BOT
     1     3    50  -0.800009E+00  -0.399518E+00   0.559547E+01   0.000000E+00
     1     5    55  -0.800009E+00  -0.313741E+00   0.474646E+01   0.000000E+00
 
 
 SOLVING FOR HEAD 
                                                   Max.-Head-Change                         Max.-Flux-Residual
  Residual-Control   Outer-Iter.   Inner-Iter.     Column Row Layer    Maximum-Head-Change  Column Row Layer    Maximum-Flux-Residual          L2-NORM 
          0                 1           3             1    1     1      -0.5829095297E-01       1    5    1        -0.1125862406E-02      0.1983244471E-01
          0                 2           2             1    1     1       0.5372035565E-02       1    5    1         0.1125790166E-03      0.1919372860E-02
          0                 3           2             1    1     1      -0.4443149542E-03       1    5    1        -0.1013277682E-04      0.1782858860E-03
          0                 4           1             1    1     1       0.3251348604E-04      30    4    1        -0.9543022053E-06      0.1534508609E-04
          0                 5           1             1    1     1      -0.1984086890E-05      30    4    1         0.9365506237E-07      0.1142887930E-05
          0                 6           1             1    1     1       0.1041775598E-06      30    4    1        -0.7038739369E-08      0.7357956146E-07

    ------------------------------------------------
       NWT REQUIRED            6 OUTER ITERATIONS 
       AND A TOTAL OF         10 INNER ITERATIONS.
    ------------------------------------------------

 NO OUTPUT CONTROL FOR STRESS PERIOD   31   TIME STEP   26
 
 WELLS WITH REDUCED PUMPING FOR STRESS PERIOD    31 TIME STEP    26
   LAY   ROW   COL         APPL.Q          ACT.Q        GW-HEAD       CELL-BOT
     1     3    50  -0.800005E+00  -0.398502E+00   0.558600E+01   0.000000E+00
     1     5    55  -0.800005E+00  -0.312956E+00   0.473905E+01   0.000000E+00
 
 
 SOLVING FOR HEAD 
                                                   Max.-Head-Change                         Max.-Flux-Residual
  Residual-Control   Outer-Iter.   Inner-Iter.     Column Row Layer    Maximum-Head-Change  Column Row Layer    Maximum-Flux-Residual          L2-NORM 
          0                 1           3             1    1     1      -0.6403761789E-01       1    7    1        -0.1124598576E-02      0.1984317970E-01
          0                 2           2             1    1     1       0.5893420221E-02       1    7    1         0.1124539244E-03      0.1921734407E-02
          0                 3           2             1    1     1      -0.4865163668E-03       1    7    1        -0.1012144655E-04      0.1786202092E-03
          0                 4           1             1    1     1       0.3547987969E-04      30    4    1        -0.9618369567E-06      0.1539416952E-04
          0                 5           1             1    1     1      -0.2121784375E-05      30    4    1         0.9460177175E-07      0.1139674625E-05
          0                 6           1             1    1     1       0.1091706509E-06      30    4    1        -0.7112587852E-08      0.7310669213E-07

    ------------------------------------------------
       NWT REQUIRED            6 OUTER ITERATIONS 
       AND A TOTAL OF         10 INNER ITERATIONS.
    ------------------------------------------------

 NO OUTPUT CONTROL FOR STRESS PERIOD   31   TIME STEP   27
 
 WELLS WITH REDUCED PUMPING FOR STRESS PERIOD    31 TIME STEP    27
   LAY   ROW   COL         APPL.Q          ACT.Q        GW-HEAD       CELL-BOT
     1     3    50  -0.800001E+00  -0.397473E+00   0.557641E+01   0.000000E+00
     1     5    55  -0.800001E+00  -0.312144E+00   0.473139E+01   0.000000E+00
 
 
 SOLVING FOR HEAD 
                                                   Max.-Head-Change                         Max.-Flux-Residual
  Residual-Control   Outer-Iter.   Inner-Iter.     Column Row Layer    Maximum-Head-Change  Column Row Layer    Maximum-Flux-Residual          L2-NORM 
          0                 1           3             1    1     1      -0.7034359053E-01       1    7    1        -0.1123283279E-02      0.1983247742E-01
          0                 2           2             1    1     1       0.6465320379E-02       1    7    1         0.1123216694E-03      0.1921855740E-02
          0                 3           2             1    1     1      -0.5327621190E-03       1    7    1        -0.1010961242E-04      0.1787791206E-03
          0                 4           1             1    1     1       0.3871313032E-04      30    4    1        -0.9663926583E-06      0.1543149844E-04
          0                 5           1             1    1     1      -0.2257622220E-05      30    4    1         0.9530288381E-07      0.1133689006E-05
          0                 6           1             1    1     1       0.1133466076E-06      30    4    1        -0.7157565207E-08      0.7240767464E-07

    ------------------------------------------------
       NWT REQUIRED            6 OUTER ITERATIONS 
       AND A TOTAL OF         10 INNER ITERATIONS.
    ------------------------------------------------

 NO OUTPUT CONTROL FOR STRESS PERIOD   31   TIME STEP   28
 
 WELLS WITH REDUCED PUMPING FOR STRESS PERIOD    31 TIME STEP    28
   LAY   ROW   COL         APPL.Q          ACT.Q        GW-HEAD       CELL-BOT
     1     3    50  -0.799986E+00  -0.396421E+00   0.556666E+01   0.000000E+00
     1     5    55  -0.799986E+00  -0.311298E+00   0.472344E+01   0.000000E+00
 
 
 SOLVING FOR HEAD 
                                                   Max.-Head-Change                         Max.-Flux-Residual
  Residual-Control   Outer-Iter.   Inner-Iter.     Column Row Layer    Maximum-Head-Change  Column Row Layer    Maximum-Flux-Residual          L2-NORM 
          0                 1           3             1    1     1      -0.7726174975E-01       1    7    1        -0.1121845414E-02      0.1980611533E-01
          0                 2           2             1    1     1       0.7092521247E-02       1    7    1         0.1121770768E-03      0.1920304988E-02
          0                 3           2             1    1     1      -0.5834266335E-03       4    3    1        -0.1009771586E-04      0.1787114917E-03
          0                 4           1             1    1     1       0.4223273959E-04      30    4    1        -0.9701962291E-06      0.1544165343E-04
          0                 5           1             1    1     1      -0.2386409877E-05      30    4    1         0.9591524019E-07      0.1123130190E-05
          0                 6           1             1    1     1       0.1163005594E-06      30    4    1        -0.7185404272E-08      0.7138612673E-07

    ------------------------------------------------
       NWT REQUIRED            6 OUTER ITERATIONS 
       AND A TOTAL OF         10 INNER ITERATIONS.
    ------------------------------------------------

 NO OUTPUT CONTROL FOR STRESS PERIOD   31   TIME STEP   29
 
 WELLS WITH REDUCED PUMPING FOR STRESS PERIOD    31 TIME STEP    29
   LAY   ROW   COL         APPL.Q          ACT.Q        GW-HEAD       CELL-BOT
     1     3    50  -0.800008E+00  -0.395332E+00   0.555640E+01   0.000000E+00
     1     5    55  -0.800008E+00  -0.310406E+00   0.471492E+01   0.000000E+00
 
 
 SOLVING FOR HEAD 
                                                   Max.-Head-Change                         Max.-Flux-Residual
  Residual-Control   Outer-Iter.   Inner-Iter.     Column Row Layer    Maximum-Head-Change  Column Row Layer    Maximum-Flux-Residual          L2-NORM 
          0                 1           3             1    1     1      -0.8484922096E-01       1    7    1        -0.1120273531E-02      0.1976583451E-01
          0                 2           2             1    1     1       0.7780180976E-02       1    7    1         0.1120189872E-03      0.1916979563E-02
          0                 3           2             1    1     1      -0.6389073185E-03       4    3    1        -0.1009129780E-04      0.1784729583E-03
          0                 4           1             1    1     1       0.4605757730E-04      30    4    1        -0.9731513195E-06      0.1543629746E-04
          0                 5           1             1    1     1      -0.2501201199E-05      30    4    1         0.9641988363E-07      0.1109174745E-05
          0                 6           1             1    1     1       0.1176091005E-06      30    4    1        -0.7192907603E-08      0.7016814511E-07

    ------------------------------------------------
       NWT REQUIRED            6 OUTER ITERATIONS 
       AND A TOTAL OF         10 INNER ITERATIONS.
    ------------------------------------------------

 NO OUTPUT CONTROL FOR STRESS PERIOD   31   TIME STEP   30
 
 WELLS WITH REDUCED PUMPING FOR STRESS PERIOD    31 TIME STEP    30
   LAY   ROW   COL         APPL.Q          ACT.Q        GW-HEAD       CELL-BOT
     1     3    50  -0.799996E+00  -0.394114E+00   0.554508E+01   0.000000E+00
     1     5    55  -0.799996E+00  -0.309381E+00   0.470526E+01   0.000000E+00
 



 STREAM LISTING     PERIOD     31   STEP       30

 LAYER ROW COL. STREAM  RCH.   FLOW INTO    STREAM     FLOW OUT OF   OVRLND.    DIRECT     STREAM      STREAM      STREAM     STREAM  STREAMBED   FLOW TO   CHNG. UNSAT. 
                SEG.NO.  NO.   STRM. RCH.    LOSS       STRM. RCH.   RUNOFF     PRECIP       ET         HEAD        DEPTH      WIDTH  CONDCTNC.   WAT. TAB.

   1    4    1     1     1    5.4600E+00  1.8346E-03   5.4582E+00  0.000E+00  0.000E+00  0.000E+00  1.41616E+02  1.766E+00  3.925E+00  8.098E-04  1.791E-03  4.400E-05
   1    4    2     1     2    5.4582E+00  1.8342E-03   5.4563E+00  0.000E+00  0.000E+00  0.000E+00  1.41315E+02  1.765E+00  3.925E+00  8.097E-04  1.790E-03  4.401E-05
   1    4    3     1     3    5.4563E+00  1.8337E-03   5.4545E+00  0.000E+00  0.000E+00  0.000E+00  1.41015E+02  1.765E+00  3.924E+00  8.096E-04  1.790E-03  4.401E-05
   1    4    4     1     4    5.4545E+00  1.8332E-03   5.4527E+00  0.000E+00  0.000E+00  0.000E+00  1.40715E+02  1.765E+00  3.924E+00  8.095E-04  1.789E-03  4.400E-05
   1    4    5     1     5    5.4527E+00  1.8327E-03   5.4508E+00  0.000E+00  0.000E+00  0.000E+00  1.40414E+02  1.764E+00  3.923E+00  8.094E-04  1.789E-03  4.397E-05
   1    4    6     1     6    5.4508E+00  1.8323E-03   5.4490E+00  0.000E+00  0.000E+00  0.000E+00  1.40114E+02  1.764E+00  3.923E+00  8.093E-04  1.788E-03  4.393E-05
   1    4    7     1     7    5.4490E+00  1.8318E-03   5.4472E+00  0.000E+00  0.000E+00  0.000E+00  1.39814E+02  1.764E+00  3.923E+00  8.092E-04  1.788E-03  4.388E-05
   1    4    8     1     8    5.4472E+00  1.8313E-03   5.4453E+00  0.000E+00  0.000E+00  0.000E+00  1.39513E+02  1.763E+00  3.922E+00  8.091E-04  1.788E-03  4.381E-05
   1    4    9     1     9    5.4453E+00  1.8308E-03   5.4435E+00  0.000E+00  0.000E+00  0.000E+00  1.39213E+02  1.763E+00  3.922E+00  8.090E-04  1.787E-03  4.373E-05
   1    4   10     1    10    5.4435E+00  1.8304E-03   5.4417E+00  0.000E+00  0.000E+00  0.000E+00  1.38913E+02  1.763E+00  3.922E+00  8.089E-04  1.787E-03  4.364E-05
   1    4   11     1    11    5.4417E+00  1.8299E-03   5.4398E+00  0.000E+00  0.000E+00  0.000E+00  1.38613E+02  1.763E+00  3.921E+00  8.088E-04  1.786E-03  4.353E-05
   1    4   12     1    12    5.4398E+00  1.8294E-03   5.4380E+00  0.000E+00  0.000E+00  0.000E+00  1.38312E+02  1.762E+00  3.921E+00  8.087E-04  1.786E-03  4.340E-05
   1    4   13     1    13    5.4380E+00  1.8290E-03   5.4362E+00  0.000E+00  0.000E+00  0.000E+00  1.38012E+02  1.762E+00  3.921E+00  8.086E-04  1.786E-03  4.325E-05
   1    4   14     1    14    5.4362E+00  1.8285E-03   5.4344E+00  0.000E+00  0.000E+00  0.000E+00  1.37712E+02  1.762E+00  3.920E+00  8.085E-04  1.785E-03  4.309E-05
   1    4   15     1    15    5.4344E+00  1.8280E-03   5.4325E+00  0.000E+00  0.000E+00  0.000E+00  1.37411E+02  1.761E+00  3.920E+00  8.084E-04  1.785E-03  4.290E-05
   1    4   16     1    16    5.4325E+00  1.8275E-03   5.4307E+00  0.000E+00  0.000E+00  0.000E+00  1.37111E+02  1.761E+00  3.919E+00  8.083E-04  1.785E-03  4.269E-05
   1    4   17     1    17    5.4307E+00  1.8271E-03   5.4289E+00  0.000E+00  0.000E+00  0.000E+00  1.36811E+02  1.761E+00  3.919E+00  8.082E-04  1.785E-03  4.246E-05
   1    4   18     1    18    5.4289E+00  1.8266E-03   5.4270E+00  0.000E+00  0.000E+00  0.000E+00  1.36510E+02  1.760E+00  3.919E+00  8.081E-04  1.784E-03  4.220E-05
   1    4   19     1    19    5.4270E+00  1.8261E-03   5.4252E+00  0.000E+00  0.000E+00  0.000E+00  1.36210E+02  1.760E+00  3.918E+00  8.080E-04  1.784E-03  4.192E-05
   1    4   20     1    20    5.4252E+00  1.8256E-03   5.4234E+00  0.000E+00  0.000E+00  0.000E+00  1.35910E+02  1.760E+00  3.918E+00  8.079E-04  1.784E-03  4.160E-05
   1    4   21     1    21    5.4234E+00  1.8252E-03   5.4216E+00  0.000E+00  0.000E+00  0.000E+00  1.35609E+02  1.759E+00  3.918E+00  8.078E-04  1.784E-03  4.125E-05
   1    4   22     1    22    5.4216E+00  1.8247E-03   5.4197E+00  0.000E+00  0.000E+00  0.000E+00  1.35309E+02  1.759E+00  3.917E+00  8.077E-04  1.784E-03  4.086E-05
   1    4   23     1    23    5.4197E+00  1.8242E-03   5.4179E+00  0.000E+00  0.000E+00  0.000E+00  1.35009E+02  1.759E+00  3.917E+00  8.076E-04  1.784E-03  4.043E-05
   1    4   24     1    24    5.4179E+00  1.8237E-03   5.4161E+00  0.000E+00  0.000E+00  0.000E+00  1.34709E+02  1.759E+00  3.916E+00  8.075E-04  1.784E-03  3.996E-05
   1    4   25     1    25    5.4161E+00  1.8233E-03   5.4143E+00  0.000E+00  0.000E+00  0.000E+00  1.34408E+02  1.758E+00  3.916E+00  8.074E-04  1.784E-03  3.944E-05
   1    4   26     1    26    5.4143E+00  1.8228E-03   5.4124E+00  0.000E+00  0.000E+00  0.000E+00  1.34108E+02  1.758E+00  3.916E+00  8.073E-04  1.784E-03  3.888E-05
   1    4   27     1    27    5.4124E+00  1.8223E-03   5.4106E+00  0.000E+00  0.000E+00  0.000E+00  1.33808E+02  1.758E+00  3.915E+00  8.072E-04  1.802E-03  2.028E-05
   1    4   28     1    28    5.4106E+00  1.8219E-03   5.4088E+00  0.000E+00  0.000E+00  0.000E+00  1.33507E+02  1.757E+00  3.915E+00  8.071E-04  1.802E-03  1.950E-05
   1    4   29     1    29    5.4088E+00  1.8214E-03   5.4070E+00  0.000E+00  0.000E+00  0.000E+00  1.33207E+02  1.757E+00  3.915E+00  8.070E-04  1.803E-03  1.864E-05
   1    4   30     1    30    5.4070E+00  1.8209E-03   5.4052E+00  0.000E+00  0.000E+00  0.000E+00  1.32907E+02  1.757E+00  3.914E+00  8.069E-04  1.804E-03  1.676E-05
   1    4   31     1    31    5.4052E+00  1.8204E-03   5.4033E+00  0.000E+00  0.000E+00  0.000E+00  1.32606E+02  1.756E+00  3.914E+00  8.068E-04  1.805E-03  1.559E-05
   1    4   32     1    32    5.4033E+00  1.8200E-03   5.4015E+00  0.000E+00  0.000E+00  0.000E+00  1.32306E+02  1.756E+00  3.914E+00  8.067E-04  1.806E-03  1.431E-05
   1    4   33     1    33    5.4015E+00  1.8195E-03   5.3997E+00  0.000E+00  0.000E+00  0.000E+00  1.32006E+02  1.756E+00  3.913E+00  8.066E-04  1.807E-03  1.292E-05
   1    4   34     1    34    5.3997E+00  1.8190E-03   5.3979E+00  0.000E+00  0.000E+00  0.000E+00  1.31705E+02  1.755E+00  3.913E+00  8.065E-04  1.808E-03  1.141E-05
   1    4   35     1    35    5.3979E+00  1.8186E-03   5.3961E+00  0.000E+00  0.000E+00  0.000E+00  1.31405E+02  1.755E+00  3.912E+00  8.064E-04  1.809E-03  9.786E-06
   1    4   36     1    36    5.3961E+00  1.8181E-03   5.3942E+00  0.000E+00  0.000E+00  0.000E+00  1.31105E+02  1.755E+00  3.912E+00  8.063E-04  1.810E-03  8.096E-06
   1    4   37     1    37    5.3942E+00  1.8176E-03   5.3924E+00  0.000E+00  0.000E+00  0.000E+00  1.30805E+02  1.755E+00  3.912E+00  8.062E-04  1.841E-03 -2.366E-05
   1    4   38     1    38    5.3924E+00  1.8171E-03   5.3906E+00  0.000E+00  0.000E+00  0.000E+00  1.30504E+02  1.754E+00  3.911E+00  8.061E-04  1.843E-03 -2.572E-05
   1    4   39     1    39    5.3906E+00  1.8167E-03   5.3888E+00  0.000E+00  0.000E+00  0.000E+00  1.30204E+02  1.754E+00  3.911E+00  8.060E-04  1.845E-03 -2.784E-05
   1    4   40     1    40    5.3888E+00  1.8162E-03   5.3870E+00  0.000E+00  0.000E+00  0.000E+00  1.29904E+02  1.754E+00  3.911E+00  8.059E-04  1.846E-03 -2.998E-05
   1    4   41     1    41    5.3870E+00  1.8157E-03   5.3852E+00  0.000E+00  0.000E+00  0.000E+00  1.29603E+02  1.753E+00  3.910E+00  8.058E-04  1.848E-03 -3.208E-05
   1    4   42     1    42    5.3852E+00  1.8153E-03   5.3833E+00  0.000E+00  0.000E+00  0.000E+00  1.29303E+02  1.753E+00  3.910E+00  8.057E-04  1.849E-03 -3.408E-05
   1    4   43     1    43    5.3833E+00  1.8148E-03   5.3815E+00  0.000E+00  0.000E+00  0.000E+00  1.29003E+02  1.753E+00  3.910E+00  8.056E-04  1.916E-03 -1.012E-04
   1    4   44     1    44    5.3815E+00  1.8143E-03   5.3797E+00  0.000E+00  0.000E+00  0.000E+00  1.28702E+02  1.752E+00  3.909E+00  8.055E-04  1.917E-03 -1.030E-04
   1    4   45     1    45    5.3797E+00  1.8138E-03   5.3779E+00  0.000E+00  0.000E+00  0.000E+00  1.28402E+02  1.752E+00  3.909E+00  8.054E-04  1.918E-03 -1.045E-04
   1    4   46     1    46    5.3779E+00  1.8134E-03   5.3761E+00  0.000E+00  0.000E+00  0.000E+00  1.28102E+02  1.752E+00  3.908E+00  8.053E-04  1.919E-03 -1.057E-04
   1    4   47     1    47    5.3761E+00  1.8129E-03   5.3743E+00  0.000E+00  0.000E+00  0.000E+00  1.27802E+02  1.752E+00  3.908E+00  8.052E-04  1.920E-03 -1.067E-04
   1    4   48     1    48    5.3743E+00  1.8124E-03   5.3725E+00  0.000E+00  0.000E+00  0.000E+00  1.27501E+02  1.751E+00  3.908E+00  8.051E-04  1.925E-03 -1.124E-04
   1    4   49     1    49    5.3725E+00  1.8120E-03   5.3707E+00  0.000E+00  0.000E+00  0.000E+00  1.27201E+02  1.751E+00  3.907E+00  8.050E-04  2.003E-03 -1.914E-04
   1    4   50     1    50    5.3707E+00  1.8115E-03   5.3688E+00  0.000E+00  0.000E+00  0.000E+00  1.26901E+02  1.751E+00  3.907E+00  8.049E-04  2.216E-03 -4.045E-04
   1    4   51     1    51    5.3688E+00  1.8110E-03   5.3670E+00  0.000E+00  0.000E+00  0.000E+00  1.26600E+02  1.750E+00  3.907E+00  8.048E-04  2.176E-03 -3.650E-04
   1    4   52     1    52    5.3670E+00  1.8106E-03   5.3652E+00  0.000E+00  0.000E+00  0.000E+00  1.26300E+02  1.750E+00  3.906E+00  8.047E-04  2.163E-03 -3.529E-04
   1    4   53     1    53    5.3652E+00  1.8101E-03   5.3634E+00  0.000E+00  0.000E+00  0.000E+00  1.26000E+02  1.750E+00  3.906E+00  8.046E-04  2.165E-03 -3.550E-04
   1    4   54     1    54    5.3634E+00  1.8096E-03   5.3616E+00  0.000E+00  0.000E+00  0.000E+00  1.25699E+02  1.749E+00  3.906E+00  8.045E-04  2.179E-03 -3.694E-04
   1    4   55     1    55    5.3616E+00  1.8091E-03   5.3598E+00  0.000E+00  0.000E+00  0.000E+00  1.25399E+02  1.749E+00  3.905E+00  8.044E-04  2.216E-03 -4.069E-04
   1    4   56     1    56    5.3598E+00  1.8087E-03   5.3580E+00  0.000E+00  0.000E+00  0.000E+00  1.25099E+02  1.749E+00  3.905E+00  8.043E-04  2.017E-03 -2.087E-04
   1    4   57     1    57    5.3580E+00  1.8082E-03   5.3562E+00  0.000E+00  0.000E+00  0.000E+00  1.24798E+02  1.748E+00  3.904E+00  8.042E-04  1.927E-03 -1.193E-04
   1    4   58     1    58    5.3562E+00  1.8077E-03   5.3544E+00  0.000E+00  0.000E+00  0.000E+00  1.24498E+02  1.748E+00  3.904E+00  8.041E-04  1.913E-03 -1.055E-04
   1    4   59     1    59    5.3544E+00  1.8073E-03   5.3526E+00  0.000E+00  0.000E+00  0.000E+00  1.24198E+02  1.748E+00  3.904E+00  8.040E-04  1.911E-03 -1.039E-04
   1    4   60     1    60    5.3526E+00  1.8068E-03   5.3508E+00  0.000E+00  0.000E+00  0.000E+00  1.23898E+02  1.748E+00  3.903E+00  8.039E-04  1.909E-03 -1.019E-04
   1    4   61     1    61    5.3508E+00  1.8063E-03   5.3489E+00  0.000E+00  0.000E+00  0.000E+00  1.23597E+02  1.747E+00  3.903E+00  8.038E-04  1.906E-03 -9.971E-05
   1    4   62     1    62    5.3489E+00  1.8059E-03   5.3471E+00  0.000E+00  0.000E+00  0.000E+00  1.23297E+02  1.747E+00  3.903E+00  8.037E-04  1.903E-03 -9.729E-05
   1    4   63     1    63    5.3471E+00  1.8054E-03   5.3453E+00  0.000E+00  0.000E+00  0.000E+00  1.22997E+02  1.747E+00  3.902E+00  8.036E-04  1.835E-03 -2.977E-05
   1    4   64     1    64    5.3453E+00  1.8049E-03   5.3435E+00  0.000E+00  0.000E+00  0.000E+00  1.22696E+02  1.746E+00  3.902E+00  8.035E-04  1.833E-03 -2.795E-05
   1    4   65     1    65    5.3435E+00  1.8045E-03   5.3417E+00  0.000E+00  0.000E+00  0.000E+00  1.22396E+02  1.746E+00  3.901E+00  8.034E-04  1.830E-03 -2.600E-05
   1    4   66     1    66    5.3417E+00  1.8040E-03   5.3399E+00  0.000E+00  0.000E+00  0.000E+00  1.22096E+02  1.746E+00  3.901E+00  8.033E-04  1.828E-03 -2.416E-05
   1    4   67     1    67    5.3399E+00  1.8035E-03   5.3381E+00  0.000E+00  0.000E+00  0.000E+00  1.21795E+02  1.745E+00  3.901E+00  8.032E-04  1.826E-03 -2.252E-05
   1    4   68     1    68    5.3381E+00  1.8031E-03   5.3363E+00  0.000E+00  0.000E+00  0.000E+00  1.21495E+02  1.745E+00  3.900E+00  8.031E-04  1.824E-03 -2.111E-05
   1    4   69     1    69    5.3363E+00  1.8026E-03   5.3345E+00  0.000E+00  0.000E+00  0.000E+00  1.21195E+02  1.745E+00  3.900E+00  8.030E-04  1.823E-03 -1.995E-05
   1    4   70     1    70    5.3345E+00  1.8021E-03   5.3327E+00  0.000E+00  0.000E+00  0.000E+00  1.20895E+02  1.744E+00  3.900E+00  8.029E-04  1.821E-03 -1.905E-05
   1    4   71     1    71    5.3327E+00  1.8016E-03   5.3309E+00  0.000E+00  0.000E+00  0.000E+00  1.20594E+02  1.744E+00  3.899E+00  8.028E-04  1.820E-03 -1.842E-05
   1    4   72     1    72    5.3309E+00  1.8012E-03   5.3291E+00  0.000E+00  0.000E+00  0.000E+00  1.20294E+02  1.744E+00  3.899E+00  8.027E-04  1.792E-03  8.883E-06
   1    4   73     1    73    5.3291E+00  1.8007E-03   5.3273E+00  0.000E+00  0.000E+00  0.000E+00  1.19994E+02  1.744E+00  3.899E+00  8.026E-04  1.792E-03  8.913E-06
   1    4   74     1    74    5.3273E+00  1.8002E-03   5.3255E+00  0.000E+00  0.000E+00  0.000E+00  1.19693E+02  1.743E+00  3.898E+00  8.025E-04  1.792E-03  8.715E-06
   1    4   75     1    75    5.3255E+00  1.7998E-03   5.3237E+00  0.000E+00  0.000E+00  0.000E+00  1.19393E+02  1.743E+00  3.898E+00  8.024E-04  1.791E-03  8.304E-06
   1    4   76     1    76    5.3237E+00  1.7993E-03   5.3219E+00  0.000E+00  0.000E+00  0.000E+00  1.19093E+02  1.743E+00  3.897E+00  8.023E-04  1.792E-03  7.690E-06
   1    4   77     1    77    5.3219E+00  1.7988E-03   5.3201E+00  0.000E+00  0.000E+00  0.000E+00  1.18792E+02  1.742E+00  3.897E+00  8.022E-04  1.792E-03  6.896E-06
   1    4   78     1    78    5.3201E+00  1.7984E-03   5.3183E+00  0.000E+00  0.000E+00  0.000E+00  1.18492E+02  1.742E+00  3.897E+00  8.021E-04  1.783E-03  1.540E-05
   1    4   79     1    79    5.3183E+00  1.7979E-03   5.3165E+00  0.000E+00  0.000E+00  0.000E+00  1.18192E+02  1.742E+00  3.896E+00  8.020E-04  1.774E-03  2.350E-05
   1    4   80     1    80    5.3165E+00  1.7974E-03   5.3147E+00  0.000E+00  0.000E+00  0.000E+00  1.17891E+02  1.741E+00  3.896E+00  8.019E-04  1.775E-03  2.220E-05
   1    4   81     1    81    5.3147E+00  1.7970E-03   5.3129E+00  0.000E+00  0.000E+00  0.000E+00  1.17591E+02  1.741E+00  3.896E+00  8.018E-04  1.776E-03  2.077E-05
   1    4   82     1    82    5.3129E+00  1.7965E-03   5.3111E+00  0.000E+00  0.000E+00  0.000E+00  1.17291E+02  1.741E+00  3.895E+00  8.017E-04  1.777E-03  1.920E-05
   1    4   83     1    83    5.3111E+00  1.7960E-03   5.3093E+00  0.000E+00  0.000E+00  0.000E+00  1.16991E+02  1.741E+00  3.895E+00  8.016E-04  1.779E-03  1.751E-05
   1    4   84     1    84    5.3093E+00  1.7956E-03   5.3075E+00  0.000E+00  0.000E+00  0.000E+00  1.16690E+02  1.740E+00  3.895E+00  8.015E-04  1.780E-03  1.571E-05
   1    4   85     1    85    5.3075E+00  1.7951E-03   5.3057E+00  0.000E+00  0.000E+00  0.000E+00  1.16390E+02  1.740E+00  3.894E+00  8.014E-04  1.781E-03  1.382E-05
   1    4   86     1    86    5.3057E+00  1.7946E-03   5.3039E+00  0.000E+00  0.000E+00  0.000E+00  1.16090E+02  1.740E+00  3.894E+00  8.013E-04  1.783E-03  1.183E-05
   1    4   87     1    87    5.3039E+00  1.7942E-03   5.3021E+00  0.000E+00  0.000E+00  0.000E+00  1.15789E+02  1.739E+00  3.893E+00  8.012E-04  1.784E-03  9.772E-06
   1    4   88     1    88    5.3021E+00  1.7937E-03   5.3004E+00  0.000E+00  0.000E+00  0.000E+00  1.15489E+02  1.739E+00  3.893E+00  8.011E-04  1.786E-03  7.642E-06
   1    4   89     1    89    5.3004E+00  1.7932E-03   5.2986E+00  0.000E+00  0.000E+00  0.000E+00  1.15189E+02  1.739E+00  3.893E+00  8.010E-04  1.788E-03  5.452E-06
   1    4   90     1    90    5.2986E+00  1.7928E-03   5.2968E+00  0.000E+00  0.000E+00  0.000E+00  1.14888E+02  1.738E+00  3.892E+00  8.009E-04  1.790E-03  3.204E-06
   1    4   91     1    91    5.2968E+00  1.7923E-03   5.2950E+00  0.000E+00  0.000E+00  0.000E+00  1.14588E+02  1.738E+00  3.892E+00  8.008E-04  1.791E-03  9.014E-07
   1    4   92     1    92    5.2950E+00  1.7918E-03   5.2932E+00  0.000E+00  0.000E+00  0.000E+00  1.14288E+02  1.738E+00  3.892E+00  8.007E-04  1.793E-03 -1.450E-06
   1    4   93     1    93    5.2932E+00  1.7914E-03   5.2914E+00  0.000E+00  0.000E+00  0.000E+00  1.13987E+02  1.737E+00  3.891E+00  8.006E-04  1.795E-03 -3.855E-06
   1    4   94     1    94    5.2914E+00  1.7909E-03   5.2896E+00  0.000E+00  0.000E+00  0.000E+00  1.13687E+02  1.737E+00  3.891E+00  8.005E-04  1.797E-03 -6.314E-06
   1    4   95     1    95    5.2896E+00  1.7904E-03   5.2878E+00  0.000E+00  0.000E+00  0.000E+00  1.13387E+02  1.737E+00  3.891E+00  8.004E-04  1.799E-03 -8.829E-06
   1    4   96     1    96    5.2878E+00  1.7900E-03   5.2860E+00  0.000E+00  0.000E+00  0.000E+00  1.13087E+02  1.737E+00  3.890E+00  8.003E-04  1.801E-03 -1.140E-05
   1    4   97     1    97    5.2860E+00  1.7895E-03   5.2842E+00  0.000E+00  0.000E+00  0.000E+00  1.12786E+02  1.736E+00  3.890E+00  8.002E-04  1.804E-03 -1.402E-05
   1    4   98     1    98    5.2842E+00  1.7891E-03   5.2824E+00  0.000E+00  0.000E+00  0.000E+00  1.12486E+02  1.736E+00  3.889E+00  8.001E-04  1.806E-03 -1.668E-05
   1    4   99     1    99    5.2824E+00  1.7886E-03   5.2807E+00  0.000E+00  0.000E+00  0.000E+00  1.12186E+02  1.736E+00  3.889E+00  8.000E-04  1.808E-03 -1.937E-05
   1    4  100     1   100    5.2807E+00  1.7881E-03   5.2789E+00  0.000E+00  0.000E+00  0.000E+00  1.11885E+02  1.735E+00  3.889E+00  7.999E-04  1.810E-03 -2.207E-05



1
  VOLUMETRIC BUDGET FOR UNSATURATED ZONE BENEATH STREAMS AT END OF TIME STEP    30 STRESS PERIOD  31
  ------------------------------------------------------------------------------------------------

    CUMULATIVE VOLUMES             L**3    RATES FOR THIS TIME STEP         L**3/T
    ------------------                     ------------------------


          STREAM LOSS =     29323686.0000            STREAM LOSS =            0.1811
    CHANGE IN STORAGE =      1409333.2500      CHANGE IN STORAGE =       -2.9108E-03
       RECHARGE TO GW =     27921482.0000         RECHARGE TO GW =            0.1840

             TOTAL IN =     29323686.0000               TOTAL IN =            0.1840

            TOTAL OUT =     29330816.0000              TOTAL OUT =            0.1840

             IN - OUT =        -7130.0000               IN - OUT =        1.3411E-07

  PERCENT DISCREPANCY =           -0.01      PERCENT DISCREPANCY =             0.00



1
  VOLUMETRIC BUDGET FOR ENTIRE MODEL AT END OF TIME STEP   30, STRESS PERIOD  31
  ------------------------------------------------------------------------------

     CUMULATIVE VOLUMES      L**3       RATES FOR THIS TIME STEP      L**3/T
     ------------------                 ------------------------

           IN:                                      IN:
           ---                                      ---
             STORAGE     =    99788560.0000               STORAGE     =           0.4815
       CONSTANT HEAD     =           0.0000         CONSTANT HEAD     =           0.0000
               WELLS     =           0.0000                 WELLS     =           0.0000
     HEAD DEP BOUNDS     =      320372.5938       HEAD DEP BOUNDS     =       3.7943E-02
      STREAM LEAKAGE     =    27921302.0000        STREAM LEAKAGE     =           0.1840

                TOTAL IN =   128030240.0000                  TOTAL IN =           0.7035

          OUT:                                     OUT:
          ----                                     ----
             STORAGE     =     3262701.0000               STORAGE     =           0.0000
       CONSTANT HEAD     =           0.0000         CONSTANT HEAD     =           0.0000
               WELLS     =   108381672.0000                 WELLS     =           0.7035
     HEAD DEP BOUNDS     =    16385952.0000       HEAD DEP BOUNDS     =           0.0000
      STREAM LEAKAGE     =           0.0000        STREAM LEAKAGE     =           0.0000

               TOTAL OUT =   128030328.0000                 TOTAL OUT =           0.7035

                IN - OUT =         -88.0000                  IN - OUT =           0.0000

     PERCENT DISCREPANCY =          -0.00         PERCENT DISCREPANCY =           0.00






         TIME SUMMARY AT END OF TIME STEP   30 IN STRESS PERIOD   31
                    SECONDS     MINUTES      HOURS       DAYS        YEARS
                    -----------------------------------------------------------
   TIME STEP LENGTH 2.49961E+05  4166.0      69.434      2.8931     7.92080E-03
 STRESS PERIOD TIME 2.59200E+06  43200.      720.00      30.000     8.21355E-02
         TOTAL TIME 8.03520E+07 1.33920E+06  22320.      930.00      2.5462    
1
1
                            STRESS PERIOD NO.   32, LENGTH =   2592000.    
                            -----------------------------------------------

                              NUMBER OF TIME STEPS =    30

                               MULTIPLIER FOR DELT =     1.100

                            INITIAL TIME STEP SIZE =   15757.40    

 REUSING NON-PARAMETER WELLS FROM LAST STRESS PERIOD

      1 WELL 

 REUSING NON-PARAMETER GHB CELLS FROM LAST STRESS PERIOD

      7 GHB CELLS



 CLASSIFICATION & COUNT OF STREAM SEGMENTS BASED ON SOURCE OF INFLOW:

                HEADWATER     DIVERSION     RECEIVES TRIBUTARY FLOW
                ---------     ---------     -----------------------
                     1              0               0



                    INPUT DATA FOR EACH STREAM SEGMENT
 ---------------------------------------------------------------------------------------------

 SEGMENT    SEG.     INFLOW   OVERLAND   STREAM    STREAM   ICALC  OUTFLOW  DIVERSION PRIORITY
    NO.    LENGTH     RATE     RUNOFF      ET       PPT.    METH.  TO SEG.  FROM SEG.    NO.

      1  2.000E+04 6.270E+00 0.000E+00 0.000E+00 0.000E+00    2        0        0        0


         STREAMBED PROPERTIES AND STREAM DIMENSIONS

 SEGMENT     BED HYD. COND.      BED THICKNESS     ELEV.-TOP OF BED     WIDTH OF STREAM     DEPTH OF STREAM    STREAM ROUGHNESS
    No.     UPPER     LOWER     UPPER     LOWER     UPPER     LOWER     UPPER     LOWER     UPPER     LOWER   CHANNEL      BANK

     1  3.500E-07 3.500E-07                                                                                 3.000E-02 4.000E-02

  EIGHT POINT CROSS-SECTION DATA FOR SEGMENTS WITH ICALC = 2
    X VALUES X VALUES START FROM LEFT SIDE LOOKING DOWNSTREAM

     SEGMENT NO.        X1        X2        X3        X4        X5        X6        X7        X8
            1      0.000E+00 2.000E+00 4.000E+00 6.000E+00 8.000E+00 1.000E+01 1.200E+01 1.400E+01

    Z VALUES ARE RELATIVE TO STREAMBED ELEVATION

     SEGMENT NO.          Z1        Z2        Z3        Z4        Z5        Z6        Z7        Z8
            1      6.000E+00 4.500E+00 3.500E+00 0.000E+00 3.000E-01 3.500E+00 4.500E+00 6.000E+00



 
 SOLVING FOR HEAD 
                                                   Max.-Head-Change                         Max.-Flux-Residual
  Residual-Control   Outer-Iter.   Inner-Iter.     Column Row Layer    Maximum-Head-Change  Column Row Layer    Maximum-Flux-Residual          L2-NORM 
          0                 1           2            50    3     1      -0.5791155344E+00      50    3    1        -0.2364986950E+00      0.3013147943E+00
          0                 2           2            50    3     1       0.5602217876E-01      50    3    1         0.2307899611E-01      0.2891781801E-01
          0                 3           2            50    3     1      -0.5007654623E-02      50    3    1        -0.2088403837E-02      0.2621187344E-02
          0                 4           2            50    3     1       0.3968448434E-03      50    3    1         0.1671971519E-03      0.2099016240E-03
          0                 5           1            50    3     1      -0.2763160071E-04      50    3    1        -0.1175432363E-04      0.1475976311E-04
          0                 6           1            50    3     1       0.1658873376E-05      50    3    1         0.7122629603E-06      0.8944679451E-06
          0                 7           1            50    3     1      -0.8381645977E-07      50    3    1        -0.3631836221E-07      0.4561083967E-07

    ------------------------------------------------
       NWT REQUIRED            7 OUTER ITERATIONS 
       AND A TOTAL OF         11 INNER ITERATIONS.
    ------------------------------------------------

 NO OUTPUT CONTROL FOR STRESS PERIOD   32   TIME STEP    1
 
 WELLS WITH REDUCED PUMPING FOR STRESS PERIOD    32 TIME STEP     1
   LAY   ROW   COL         APPL.Q          ACT.Q        GW-HEAD       CELL-BOT
     1     3    50  -0.127972E+01  -0.540362E+00   0.501735E+01   0.000000E+00
     1     5    55  -0.127972E+01  -0.424367E+00   0.428183E+01   0.000000E+00
 
 
 SOLVING FOR HEAD 
                                                   Max.-Head-Change                         Max.-Flux-Residual
  Residual-Control   Outer-Iter.   Inner-Iter.     Column Row Layer    Maximum-Head-Change  Column Row Layer    Maximum-Flux-Residual          L2-NORM 
          0                 1           2            50    3     1      -0.3192429861E+00      50    3    1        -0.1207743479E+00      0.1569509710E+00
          0                 2           2            50    3     1       0.3033503593E-01      50    3    1         0.1161959925E-01      0.1494736699E-01
          0                 3           2            50    3     1      -0.2697076001E-02      50    3    1        -0.1050786640E-02      0.1353088718E-02
          0                 4           2            50    3     1       0.2132069274E-03      50    3    1         0.8413002960E-04      0.1084363769E-03
          0                 5           1            50    3     1      -0.1482702117E-04      50    3    1        -0.5914493813E-05      0.7628893936E-05
          0                 6           1            50    3     1       0.8897039750E-06      50    3    1         0.3583936544E-06      0.4624632765E-06

    ------------------------------------------------
       NWT REQUIRED            6 OUTER ITERATIONS 
       AND A TOTAL OF         10 INNER ITERATIONS.
    ------------------------------------------------

 NO OUTPUT CONTROL FOR STRESS PERIOD   32   TIME STEP    2
 
 WELLS WITH REDUCED PUMPING FOR STRESS PERIOD    32 TIME STEP     2
   LAY   ROW   COL         APPL.Q          ACT.Q        GW-HEAD       CELL-BOT
     1     3    50  -0.128021E+01  -0.491460E+00   0.472595E+01   0.000000E+00
     1     5    55  -0.128021E+01  -0.385692E+00   0.404233E+01   0.000000E+00
 
 
 SOLVING FOR HEAD 
                                                   Max.-Head-Change                         Max.-Flux-Residual
  Residual-Control   Outer-Iter.   Inner-Iter.     Column Row Layer    Maximum-Head-Change  Column Row Layer    Maximum-Flux-Residual          L2-NORM 
          0                 1           2            50    3     1      -0.1749440325E+00      50    3    1        -0.6037967949E-01      0.8327673789E-01
          0                 2           2            50    3     1       0.1656170147E-01      50    3    1         0.5850802600E-02      0.7960689124E-02
          0                 3           2            50    3     1      -0.1462073738E-02      50    3    1        -0.5283855156E-03      0.7183917208E-03
          0                 4           2            50    3     1       0.1152059208E-03      50    3    1         0.4231004778E-04      0.5764645105E-04
          0                 5           1            50    3     1      -0.7997862557E-05      50    3    1        -0.2974438401E-05      0.4060670657E-05
          0                 6           1            50    3     1       0.4795496107E-06      50    3    1         0.1802383591E-06      0.2463729912E-06

    ------------------------------------------------
       NWT REQUIRED            6 OUTER ITERATIONS 
       AND A TOTAL OF         10 INNER ITERATIONS.
    ------------------------------------------------

 NO OUTPUT CONTROL FOR STRESS PERIOD   32   TIME STEP    3
 
 WELLS WITH REDUCED PUMPING FOR STRESS PERIOD    32 TIME STEP     3
   LAY   ROW   COL         APPL.Q          ACT.Q        GW-HEAD       CELL-BOT
     1     3    50  -0.127983E+01  -0.464732E+00   0.456621E+01   0.000000E+00
     1     5    55  -0.127983E+01  -0.364245E+00   0.390817E+01   0.000000E+00
 
 
 SOLVING FOR HEAD 
                                                   Max.-Head-Change                         Max.-Flux-Residual
  Residual-Control   Outer-Iter.   Inner-Iter.     Column Row Layer    Maximum-Head-Change  Column Row Layer    Maximum-Flux-Residual          L2-NORM 
          0                 1           2            50    3     1      -0.9797404073E-01      50    3    1        -0.3028482306E-01      0.4878952429E-01
          0                 2           2            50    3     1       0.9231372863E-02      50    3    1         0.2963370412E-02      0.4654269186E-02
          0                 3           2            50    3     1      -0.8076744092E-03      50    3    1        -0.2673174833E-03      0.4186592566E-03
          0                 4           1            50    3     1       0.6334182460E-04      50    3    1         0.2140756160E-04      0.3369253724E-04
          0                 5           1            50    3     1      -0.4385500519E-05      50    3    1        -0.1504942790E-05      0.2380821892E-05
          0                 6           1            50    3     1       0.2626091559E-06      50    3    1         0.9119253247E-07      0.1448003776E-06

    ------------------------------------------------
       NWT REQUIRED            6 OUTER ITERATIONS 
       AND A TOTAL OF          9 INNER ITERATIONS.
    ------------------------------------------------

 NO OUTPUT CONTROL FOR STRESS PERIOD   32   TIME STEP    4
 
 WELLS WITH REDUCED PUMPING FOR STRESS PERIOD    32 TIME STEP     4
   LAY   ROW   COL         APPL.Q          ACT.Q        GW-HEAD       CELL-BOT
     1     3    50  -0.128018E+01  -0.450082E+00   0.447672E+01   0.000000E+00
     1     5    55  -0.128018E+01  -0.352354E+00   0.383188E+01   0.000000E+00
 
 
 SOLVING FOR HEAD 
                                                   Max.-Head-Change                         Max.-Flux-Residual
  Residual-Control   Outer-Iter.   Inner-Iter.     Column Row Layer    Maximum-Head-Change  Column Row Layer    Maximum-Flux-Residual          L2-NORM 
          0                 1           2            50    4     1      -0.5936790438E-01      50    3    1        -0.1532998432E-01      0.3391301255E-01
          0                 2           2            50    2     1       0.5648159979E-02      50    3    1         0.1512593328E-02      0.3222955235E-02
          0                 3           2            50    2     1      -0.5024777898E-03      50    3    1        -0.1363304836E-03      0.2899995032E-03
          0                 4           1            50    2     1       0.3982201069E-04      50    3    1         0.1091862246E-04      0.2346591637E-04
          0                 5           1            50    2     1      -0.2771870587E-05      50    3    1        -0.7675565562E-06      0.1667267590E-05
          0                 6           1            50    2     1       0.1663810846E-06      50    3    1         0.4650962521E-07      0.1018411988E-06

    ------------------------------------------------
       NWT REQUIRED            6 OUTER ITERATIONS 
       AND A TOTAL OF          9 INNER ITERATIONS.
    ------------------------------------------------

 NO OUTPUT CONTROL FOR STRESS PERIOD   32   TIME STEP    5
 
 WELLS WITH REDUCED PUMPING FOR STRESS PERIOD    32 TIME STEP     5
   LAY   ROW   COL         APPL.Q          ACT.Q        GW-HEAD       CELL-BOT
     1     3    50  -0.128009E+01  -0.441508E+00   0.442470E+01   0.000000E+00
     1     5    55  -0.128009E+01  -0.345374E+00   0.378729E+01   0.000000E+00
 
 
 SOLVING FOR HEAD 
                                                   Max.-Head-Change                         Max.-Flux-Residual
  Residual-Control   Outer-Iter.   Inner-Iter.     Column Row Layer    Maximum-Head-Change  Column Row Layer    Maximum-Flux-Residual          L2-NORM 
          0                 1           2            50    2     1      -0.5164064681E-01      50    2    1        -0.8147053763E-02      0.2795898845E-01
          0                 2           2            50    2     1       0.5077992615E-02      50    2    1         0.8116555492E-03      0.2666406583E-02
          0                 3           2            50    2     1      -0.4517688144E-03      50    2    1        -0.7308043780E-04      0.2410012055E-03
          0                 4           1            50    2     1       0.3580165992E-04      50    2    1         0.5853486778E-05      0.1961792767E-04
          0                 5           1            50    2     1      -0.2491928037E-05      50    2    1        -0.4114960924E-06      0.1401598610E-05
          0                 6           1            50    2     1       0.1495719607E-06      50    2    1         0.2493502882E-07      0.8600189414E-07

    ------------------------------------------------
       NWT REQUIRED            6 OUTER ITERATIONS 
       AND A TOTAL OF          9 INNER ITERATIONS.
    ------------------------------------------------

 NO OUTPUT CONTROL FOR STRESS PERIOD   32   TIME STEP    6
 
 WELLS WITH REDUCED PUMPING FOR STRESS PERIOD    32 TIME STEP     6
   LAY   ROW   COL         APPL.Q          ACT.Q        GW-HEAD       CELL-BOT
     1     3    50  -0.127993E+01  -0.436156E+00   0.439233E+01   0.000000E+00
     1     5    55  -0.127993E+01  -0.341045E+00   0.375968E+01   0.000000E+00
 
 
 SOLVING FOR HEAD 
                                                   Max.-Head-Change                         Max.-Flux-Residual
  Residual-Control   Outer-Iter.   Inner-Iter.     Column Row Layer    Maximum-Head-Change  Column Row Layer    Maximum-Flux-Residual          L2-NORM 
          0                 1           2            50    2     1      -0.4611617840E-01      50    2    1        -0.6664701657E-02      0.2542576006E-01
          0                 2           2            50    2     1       0.4532988392E-02      50    2    1         0.6635561574E-03      0.2440473649E-02
          0                 3           2            50    2     1      -0.4032480854E-03      50    2    1        -0.5974956389E-04      0.2216217496E-03
          0                 4           1            50    2     1       0.3195396670E-04      50    2    1         0.4785700986E-05      0.1812546762E-04
          0                 5           1            50    2     1      -0.2223959366E-05      50    2    1        -0.3364316694E-06      0.1300650322E-05
          0                 6           1            50    2     1       0.1334799951E-06      50    2    1         0.2038642177E-07      0.8011132439E-07

    ------------------------------------------------
       NWT REQUIRED            6 OUTER ITERATIONS 
       AND A TOTAL OF          9 INNER ITERATIONS.
    ------------------------------------------------

 NO OUTPUT CONTROL FOR STRESS PERIOD   32   TIME STEP    7
 
 WELLS WITH REDUCED PUMPING FOR STRESS PERIOD    32 TIME STEP     7
   LAY   ROW   COL         APPL.Q          ACT.Q        GW-HEAD       CELL-BOT
     1     3    50  -0.127985E+01  -0.432517E+00   0.437021E+01   0.000000E+00
     1     5    55  -0.127985E+01  -0.338139E+00   0.374103E+01   0.000000E+00
 
 
 SOLVING FOR HEAD 
                                                   Max.-Head-Change                         Max.-Flux-Residual
  Residual-Control   Outer-Iter.   Inner-Iter.     Column Row Layer    Maximum-Head-Change  Column Row Layer    Maximum-Flux-Residual          L2-NORM 
          0                 1           2            50    2     1      -0.4130944405E-01      50    2    1        -0.5410857904E-02      0.2411820959E-01
          0                 2           2            50    2     1       0.4059625224E-02      50    2    1         0.5387047186E-03      0.2327182378E-02
          0                 3           2            50    2     1      -0.3610727928E-03      50    2    1        -0.4850740344E-04      0.2121349956E-03
          0                 4           1            50    2     1       0.2860922577E-04      50    2    1         0.3885249192E-05      0.1741697171E-04
          0                 5           1            50    2     1      -0.1991024923E-05      50    2    1        -0.2731304903E-06      0.1254503674E-05
          0                 6           1            50    2     1       0.1194928009E-06      50    2    1         0.1655062221E-07      0.7753142554E-07

    ------------------------------------------------
       NWT REQUIRED            6 OUTER ITERATIONS 
       AND A TOTAL OF          9 INNER ITERATIONS.
    ------------------------------------------------

 NO OUTPUT CONTROL FOR STRESS PERIOD   32   TIME STEP    8
 
 WELLS WITH REDUCED PUMPING FOR STRESS PERIOD    32 TIME STEP     8
   LAY   ROW   COL         APPL.Q          ACT.Q        GW-HEAD       CELL-BOT
     1     3    50  -0.127989E+01  -0.429808E+00   0.435352E+01   0.000000E+00
     1     5    55  -0.127989E+01  -0.336006E+00   0.372716E+01   0.000000E+00
 
 
 SOLVING FOR HEAD 
                                                   Max.-Head-Change                         Max.-Flux-Residual
  Residual-Control   Outer-Iter.   Inner-Iter.     Column Row Layer    Maximum-Head-Change  Column Row Layer    Maximum-Flux-Residual          L2-NORM 
          0                 1           2            50    2     1      -0.3733908166E-01      50    2    1        -0.4406341810E-02      0.2331125640E-01
          0                 2           2            50    2     1       0.3668784432E-02      50    2    1         0.4388140080E-03      0.2256893108E-02
          0                 3           2            50    2     1      -0.3262247380E-03      50    2    1        -0.3951157463E-04      0.2062951493E-03
          0                 4           1            50    2     1       0.2584480171E-04      50    2    1         0.3164729200E-05      0.1699512036E-04
          0                 5           1            50    2     1      -0.1798469368E-05      50    2    1        -0.2224783400E-06      0.1228463381E-05
          0                 6           1            50    2     1       0.1079289815E-06      50    2    1         0.1348130318E-07      0.7617622384E-07

    ------------------------------------------------
       NWT REQUIRED            6 OUTER ITERATIONS 
       AND A TOTAL OF          9 INNER ITERATIONS.
    ------------------------------------------------

 NO OUTPUT CONTROL FOR STRESS PERIOD   32   TIME STEP    9
 
 WELLS WITH REDUCED PUMPING FOR STRESS PERIOD    32 TIME STEP     9
   LAY   ROW   COL         APPL.Q          ACT.Q        GW-HEAD       CELL-BOT
     1     3    50  -0.127995E+01  -0.427615E+00   0.433993E+01   0.000000E+00
     1     5    55  -0.127995E+01  -0.334300E+00   0.371600E+01   0.000000E+00
 
 
 SOLVING FOR HEAD 
                                                   Max.-Head-Change                         Max.-Flux-Residual
  Residual-Control   Outer-Iter.   Inner-Iter.     Column Row Layer    Maximum-Head-Change  Column Row Layer    Maximum-Flux-Residual          L2-NORM 
          0                 1           2            50    1     1      -0.3630235534E-01      50    2    1        -0.3620816749E-02      0.2275130564E-01
          0                 2           2            50    1     1       0.3587788849E-02      50    2    1         0.3607223522E-03      0.2207020358E-02
          0                 3           2            50    1     1      -0.3197782164E-03      50    2    1        -0.3247871481E-04      0.2021625885E-03
          0                 4           1            50    1     1       0.2537128800E-04      50    2    1         0.2601434333E-05      0.1670702962E-04
          0                 5           1            50    1     1      -0.1766646721E-05      50    2    1        -0.1828790194E-06      0.1211833974E-05
          0                 6           1            50    1     1       0.1060466178E-06      50    2    1         0.1108174216E-07      0.7539960737E-07

    ------------------------------------------------
       NWT REQUIRED            6 OUTER ITERATIONS 
       AND A TOTAL OF          9 INNER ITERATIONS.
    ------------------------------------------------

 NO OUTPUT CONTROL FOR STRESS PERIOD   32   TIME STEP   10
 
 WELLS WITH REDUCED PUMPING FOR STRESS PERIOD    32 TIME STEP    10
   LAY   ROW   COL         APPL.Q          ACT.Q        GW-HEAD       CELL-BOT
     1     3    50  -0.127989E+01  -0.425715E+00   0.432836E+01   0.000000E+00
     1     5    55  -0.127989E+01  -0.332833E+00   0.370656E+01   0.000000E+00
 
 
 SOLVING FOR HEAD 
                                                   Max.-Head-Change                         Max.-Flux-Residual
  Residual-Control   Outer-Iter.   Inner-Iter.     Column Row Layer    Maximum-Head-Change  Column Row Layer    Maximum-Flux-Residual          L2-NORM 
          0                 1           2            50    1     1      -0.3594202307E-01      50    1    1        -0.3198467001E-02      0.2234247019E-01
          0                 2           2            50    1     1       0.3550643667E-02      50    1    1         0.3192739961E-03      0.2169523202E-02
          0                 3           2            50    1     1      -0.3164355164E-03      50    1    1        -0.2874037798E-04      0.1991151664E-03
          0                 4           1            50    1     1       0.2510416425E-04      50    1    1         0.2302058954E-05      0.1650565150E-04
          0                 5           1            50    1     1      -0.1747798152E-05      50    1    1        -0.1617659041E-06      0.1201308212E-05
          0                 6           1            50    1     1       0.1049020103E-06      50    1    1         0.9798308720E-08      0.7499779341E-07

    ------------------------------------------------
       NWT REQUIRED            6 OUTER ITERATIONS 
       AND A TOTAL OF          9 INNER ITERATIONS.
    ------------------------------------------------

 NO OUTPUT CONTROL FOR STRESS PERIOD   32   TIME STEP   11
 
 WELLS WITH REDUCED PUMPING FOR STRESS PERIOD    32 TIME STEP    11
   LAY   ROW   COL         APPL.Q          ACT.Q        GW-HEAD       CELL-BOT
     1     3    50  -0.128004E+01  -0.424052E+00   0.431781E+01   0.000000E+00
     1     5    55  -0.128004E+01  -0.331556E+00   0.369800E+01   0.000000E+00
 
 
 SOLVING FOR HEAD 
                                                   Max.-Head-Change                         Max.-Flux-Residual
  Residual-Control   Outer-Iter.   Inner-Iter.     Column Row Layer    Maximum-Head-Change  Column Row Layer    Maximum-Flux-Residual          L2-NORM 
          0                 1           2            50    1     1      -0.3520606862E-01      50    1    1        -0.2878957203E-02      0.2201743706E-01
          0                 2           2            50    1     1       0.3476432716E-02      50    1    1         0.2873002896E-03      0.2139536510E-02
          0                 3           2            50    1     1      -0.3097710391E-03      50    1    1        -0.2586295784E-04      0.1966434903E-03
          0                 4           1            50    1     1       0.2457272197E-04      50    1    1         0.2071575825E-05      0.1634774070E-04
          0                 5           1            50    1     1      -0.1710447035E-05      50    1    1        -0.1455420469E-06      0.1193897684E-05
          0                 6           1            50    1     1       0.1026417905E-06      50    1    1         0.8813930474E-08      0.7479684901E-07

    ------------------------------------------------
       NWT REQUIRED            6 OUTER ITERATIONS 
       AND A TOTAL OF          9 INNER ITERATIONS.
    ------------------------------------------------

 NO OUTPUT CONTROL FOR STRESS PERIOD   32   TIME STEP   12
 
 WELLS WITH REDUCED PUMPING FOR STRESS PERIOD    32 TIME STEP    12
   LAY   ROW   COL         APPL.Q          ACT.Q        GW-HEAD       CELL-BOT
     1     3    50  -0.128006E+01  -0.422492E+00   0.430816E+01   0.000000E+00
     1     5    55  -0.128006E+01  -0.330369E+00   0.369024E+01   0.000000E+00
 
 
 SOLVING FOR HEAD 
                                                   Max.-Head-Change                         Max.-Flux-Residual
  Residual-Control   Outer-Iter.   Inner-Iter.     Column Row Layer    Maximum-Head-Change  Column Row Layer    Maximum-Flux-Residual          L2-NORM 
          0                 1           2            50    1     1      -0.3422704926E-01      50    1    1        -0.2563750058E-02      0.2175467307E-01
          0                 2           2            50    1     1       0.3377415084E-02      50    1    1         0.2558026871E-03      0.2114507979E-02
          0                 3           2            50    1     1      -0.3008623267E-03      50    1    1        -0.2302795853E-04      0.1946322407E-03
          0                 4           1            50    1     1       0.2386334199E-04      50    1    1         0.1844493987E-05      0.1622766516E-04
          0                 5           1            50    1     1      -0.1660711352E-05      50    1    1        -0.1295528129E-06      0.1189133639E-05
          0                 6           1            50    1     1       0.9963949079E-07      50    1    1         0.7843502126E-08      0.7475775592E-07

    ------------------------------------------------
       NWT REQUIRED            6 OUTER ITERATIONS 
       AND A TOTAL OF          9 INNER ITERATIONS.
    ------------------------------------------------

 NO OUTPUT CONTROL FOR STRESS PERIOD   32   TIME STEP   13
 
 WELLS WITH REDUCED PUMPING FOR STRESS PERIOD    32 TIME STEP    13
   LAY   ROW   COL         APPL.Q          ACT.Q        GW-HEAD       CELL-BOT
     1     3    50  -0.128006E+01  -0.421026E+00   0.429913E+01   0.000000E+00
     1     5    55  -0.128006E+01  -0.329253E+00   0.368297E+01   0.000000E+00
 
 
 SOLVING FOR HEAD 
                                                   Max.-Head-Change                         Max.-Flux-Residual
  Residual-Control   Outer-Iter.   Inner-Iter.     Column Row Layer    Maximum-Head-Change  Column Row Layer    Maximum-Flux-Residual          L2-NORM 
          0                 1           2            50    1     1      -0.3311317001E-01      50    1    1        -0.2266020574E-02      0.2153356023E-01
          0                 2           2            50    1     1       0.3265796010E-02      50    1    1         0.2260789380E-03      0.2093555978E-02
          0                 3           2            50    1     1      -0.2908262926E-03      50    1    1        -0.2035233771E-04      0.1929397966E-03
          0                 4           1            50    1     1       0.2306257421E-04      50    1    1         0.1630180532E-05      0.1613102196E-04
          0                 5           1            50    1     1      -0.1604350736E-05      50    1    1        -0.1144561939E-06      0.1185975056E-05
          0                 6           1            50    1     1       0.9622525411E-07      50    1    1         0.6926867691E-08      0.7482141698E-07

    ------------------------------------------------
       NWT REQUIRED            6 OUTER ITERATIONS 
       AND A TOTAL OF          9 INNER ITERATIONS.
    ------------------------------------------------

 NO OUTPUT CONTROL FOR STRESS PERIOD   32   TIME STEP   14
 
 WELLS WITH REDUCED PUMPING FOR STRESS PERIOD    32 TIME STEP    14
   LAY   ROW   COL         APPL.Q          ACT.Q        GW-HEAD       CELL-BOT
     1     3    50  -0.128003E+01  -0.419630E+00   0.429059E+01   0.000000E+00
     1     5    55  -0.128003E+01  -0.328178E+00   0.367602E+01   0.000000E+00
 
 
 SOLVING FOR HEAD 
                                                   Max.-Head-Change                         Max.-Flux-Residual
  Residual-Control   Outer-Iter.   Inner-Iter.     Column Row Layer    Maximum-Head-Change  Column Row Layer    Maximum-Flux-Residual          L2-NORM 
          0                 1           2            50    1     1      -0.3195567223E-01      50    1    1        -0.1993075830E-02      0.2134614414E-01
          0                 2           2            50    1     1       0.3149518207E-02      50    1    1         0.1988466500E-03      0.2075455033E-02
          0                 3           2            50    1     1      -0.2803423667E-03      50    1    1        -0.1790082708E-04      0.1914817183E-03
          0                 4           1            50    1     1       0.2222449245E-04      50    1    1         0.1433819254E-05      0.1605264179E-04
          0                 5           1            50    1     1      -0.1545188653E-05      50    1    1        -0.1006160777E-06      0.1184033883E-05
          0                 6           1            50    1     1       0.9263277755E-07      50    1    1         0.6086047111E-08      0.7495851720E-07

    ------------------------------------------------
       NWT REQUIRED            6 OUTER ITERATIONS 
       AND A TOTAL OF          9 INNER ITERATIONS.
    ------------------------------------------------

 NO OUTPUT CONTROL FOR STRESS PERIOD   32   TIME STEP   15
 
 WELLS WITH REDUCED PUMPING FOR STRESS PERIOD    32 TIME STEP    15
   LAY   ROW   COL         APPL.Q          ACT.Q        GW-HEAD       CELL-BOT
     1     3    50  -0.128003E+01  -0.418281E+00   0.428227E+01   0.000000E+00
     1     5    55  -0.128003E+01  -0.327142E+00   0.366926E+01   0.000000E+00
 
 
 SOLVING FOR HEAD 
                                                   Max.-Head-Change                         Max.-Flux-Residual
  Residual-Control   Outer-Iter.   Inner-Iter.     Column Row Layer    Maximum-Head-Change  Column Row Layer    Maximum-Flux-Residual          L2-NORM 
          0                 1           2            50    1     1      -0.3082287868E-01      50    1    1        -0.1748661198E-02      0.2118239985E-01
          0                 2           2            50    1     1       0.3035140937E-02      50    1    1         0.1744699481E-03      0.2059533590E-02
          0                 3           2            50    1     1      -0.2700136385E-03      50    1    1        -0.1570629911E-04      0.1902074932E-03
          0                 4           1            50    1     1       0.2139770445E-04      50    1    1         0.1258042465E-05      0.1598679632E-04
          0                 5           1            50    1     1      -0.1486605128E-05      50    1    1        -0.8821685998E-07      0.1182756517E-05
          0                 6           1            50    1     1       0.8906374221E-07       2    4    1        -0.5876252374E-08      0.7512997433E-07

    ------------------------------------------------
       NWT REQUIRED            6 OUTER ITERATIONS 
       AND A TOTAL OF          9 INNER ITERATIONS.
    ------------------------------------------------

 NO OUTPUT CONTROL FOR STRESS PERIOD   32   TIME STEP   16
 
 WELLS WITH REDUCED PUMPING FOR STRESS PERIOD    32 TIME STEP    16
   LAY   ROW   COL         APPL.Q          ACT.Q        GW-HEAD       CELL-BOT
     1     3    50  -0.128003E+01  -0.416955E+00   0.427407E+01   0.000000E+00
     1     5    55  -0.128003E+01  -0.326124E+00   0.366261E+01   0.000000E+00
 
 
 SOLVING FOR HEAD 
                                                   Max.-Head-Change                         Max.-Flux-Residual
  Residual-Control   Outer-Iter.   Inner-Iter.     Column Row Layer    Maximum-Head-Change  Column Row Layer    Maximum-Flux-Residual          L2-NORM 
          0                 1           2            51    1     1      -0.3110151683E-01      50    1    1        -0.1533469010E-02      0.2103686967E-01
          0                 2           2            51    1     1       0.3051559446E-02      50    1    1         0.1530122391E-03      0.2045341379E-02
          0                 3           2            51    1     1      -0.2709676811E-03      50    1    1        -0.1377451082E-04      0.1890867855E-03
          0                 4           1            51    1     1       0.2146318083E-04      50    1    1         0.1103310863E-05      0.1593403443E-04
          0                 5           1            51    1     1      -0.1492508742E-05      30    4    1         0.7792228551E-07      0.1182239536E-05
          0                 6           1            51    1     1       0.8950928774E-07       2    4    1        -0.6003933350E-08      0.7533602739E-07

    ------------------------------------------------
       NWT REQUIRED            6 OUTER ITERATIONS 
       AND A TOTAL OF          9 INNER ITERATIONS.
    ------------------------------------------------

 NO OUTPUT CONTROL FOR STRESS PERIOD   32   TIME STEP   17
 
 WELLS WITH REDUCED PUMPING FOR STRESS PERIOD    32 TIME STEP    17
   LAY   ROW   COL         APPL.Q          ACT.Q        GW-HEAD       CELL-BOT
     1     3    50  -0.128006E+01  -0.415649E+00   0.426594E+01   0.000000E+00
     1     5    55  -0.128006E+01  -0.325116E+00   0.365597E+01   0.000000E+00
 
 
 SOLVING FOR HEAD 
                                                   Max.-Head-Change                         Max.-Flux-Residual
  Residual-Control   Outer-Iter.   Inner-Iter.     Column Row Layer    Maximum-Head-Change  Column Row Layer    Maximum-Flux-Residual          L2-NORM 
          0                 1           2            51    1     1      -0.3208621719E-01      51    1    1        -0.1407144883E-02      0.2090463173E-01
          0                 2           2            51    1     1       0.3142965048E-02      51    1    1         0.1405104094E-03      0.2032410554E-02
          0                 3           2            51    1     1      -0.2788199223E-03      51    1    1        -0.1264830060E-04      0.1880822287E-03
          0                 4           1            51    1     1       0.2207241245E-04      51    1    1         0.1013108870E-05      0.1589038301E-04
          0                 5           1            51    1     1      -0.1533741129E-05      29    4    1         0.8170479049E-07      0.1182105267E-05
          0                 6           1            51    1     1       0.9192917701E-07       2    4    1        -0.6123958229E-08      0.7555003184E-07

    ------------------------------------------------
       NWT REQUIRED            6 OUTER ITERATIONS 
       AND A TOTAL OF          9 INNER ITERATIONS.
    ------------------------------------------------

 NO OUTPUT CONTROL FOR STRESS PERIOD   32   TIME STEP   18
 
 WELLS WITH REDUCED PUMPING FOR STRESS PERIOD    32 TIME STEP    18
   LAY   ROW   COL         APPL.Q          ACT.Q        GW-HEAD       CELL-BOT
     1     3    50  -0.128004E+01  -0.414346E+00   0.425791E+01   0.000000E+00
     1     5    55  -0.128004E+01  -0.324098E+00   0.364933E+01   0.000000E+00
 
 
 SOLVING FOR HEAD 
                                                   Max.-Head-Change                         Max.-Flux-Residual
  Residual-Control   Outer-Iter.   Inner-Iter.     Column Row Layer    Maximum-Head-Change  Column Row Layer    Maximum-Flux-Residual          L2-NORM 
          0                 1           2            51    1     1      -0.3296419866E-01      51    1    1        -0.1319929354E-02      0.2078367637E-01
          0                 2           2            51    1     1       0.3223245538E-02      51    1    1         0.1317791426E-03      0.2020414483E-02
          0                 3           2            51    1     1      -0.2856119937E-03      51    1    1        -0.1186262056E-04      0.1871251207E-03
          0                 4           1            51    1     1       0.2259275421E-04      51    1    1         0.9501745817E-06      0.1584722836E-04
          0                 5           1            51    1     1      -0.1568233273E-05      29    4    1         0.8343158697E-07      0.1181500371E-05
          0                 6           1            51    1     1       0.9391761608E-07       2    4    1        -0.6235939765E-08      0.7570881867E-07

    ------------------------------------------------
       NWT REQUIRED            6 OUTER ITERATIONS 
       AND A TOTAL OF          9 INNER ITERATIONS.
    ------------------------------------------------

 NO OUTPUT CONTROL FOR STRESS PERIOD   32   TIME STEP   19
 
 WELLS WITH REDUCED PUMPING FOR STRESS PERIOD    32 TIME STEP    19
   LAY   ROW   COL         APPL.Q          ACT.Q        GW-HEAD       CELL-BOT
     1     3    50  -0.127997E+01  -0.413039E+00   0.424996E+01   0.000000E+00
     1     5    55  -0.127997E+01  -0.323067E+00   0.364269E+01   0.000000E+00
 
 
 SOLVING FOR HEAD 
                                                   Max.-Head-Change                         Max.-Flux-Residual
  Residual-Control   Outer-Iter.   Inner-Iter.     Column Row Layer    Maximum-Head-Change  Column Row Layer    Maximum-Flux-Residual          L2-NORM 
          0                 1           2            51    1     1      -0.3377990757E-01      51    1    1        -0.1232973655E-02      0.2067153865E-01
          0                 2           2            51    1     1       0.3296455570E-02      51    1    1         0.1230840896E-03      0.2009592373E-02
          0                 3           2            51    1     1      -0.2916976192E-03      51    1    1        -0.1108010297E-04      0.1862844807E-03
          0                 4           1            51    1     1       0.2305210419E-04      29    4    1        -0.8931712401E-06      0.1581323004E-04
          0                 5           1            51    1     1      -0.1597793513E-05      29    4    1         0.8484504832E-07      0.1181061380E-05
          0                 6           1            51    1     1       0.9557521028E-07       2    4    1        -0.6339373471E-08      0.7584641830E-07

    ------------------------------------------------
       NWT REQUIRED            6 OUTER ITERATIONS 
       AND A TOTAL OF          9 INNER ITERATIONS.
    ------------------------------------------------

 NO OUTPUT CONTROL FOR STRESS PERIOD   32   TIME STEP   20
 
 WELLS WITH REDUCED PUMPING FOR STRESS PERIOD    32 TIME STEP    20
   LAY   ROW   COL         APPL.Q          ACT.Q        GW-HEAD       CELL-BOT
     1     3    50  -0.127996E+01  -0.411729E+00   0.424186E+01   0.000000E+00
     1     5    55  -0.127996E+01  -0.322028E+00   0.363589E+01   0.000000E+00
 
 
 SOLVING FOR HEAD 
                                                   Max.-Head-Change                         Max.-Flux-Residual
  Residual-Control   Outer-Iter.   Inner-Iter.     Column Row Layer    Maximum-Head-Change  Column Row Layer    Maximum-Flux-Residual          L2-NORM 
          0                 1           2             1    1     1      -0.3580138424E-01      51    1    1        -0.1148833170E-02      0.2055653403E-01
          0                 2           2            51    1     1       0.3366965529E-02      51    1    1         0.1146787476E-03      0.1999014617E-02
          0                 3           2            51    1     1      -0.2974600216E-03      51    1    1        -0.1032358244E-04      0.1854753516E-03
          0                 4           1            51    1     1       0.2348002678E-04      29    4    1        -0.9044635068E-06      0.1578028476E-04
          0                 5           1            51    1     1      -0.1624257678E-05      29    4    1         0.8611033486E-07      0.1179984933E-05
          0                 6           1            51    1     1       0.9700018084E-07       2    4    1        -0.6433680255E-08      0.7590122365E-07

    ------------------------------------------------
       NWT REQUIRED            6 OUTER ITERATIONS 
       AND A TOTAL OF          9 INNER ITERATIONS.
    ------------------------------------------------

 NO OUTPUT CONTROL FOR STRESS PERIOD   32   TIME STEP   21
 
 WELLS WITH REDUCED PUMPING FOR STRESS PERIOD    32 TIME STEP    21
   LAY   ROW   COL         APPL.Q          ACT.Q        GW-HEAD       CELL-BOT
     1     3    50  -0.128000E+01  -0.410406E+00   0.423359E+01   0.000000E+00
     1     5    55  -0.128000E+01  -0.320971E+00   0.362889E+01   0.000000E+00
 
 
 SOLVING FOR HEAD 
                                                   Max.-Head-Change                         Max.-Flux-Residual
  Residual-Control   Outer-Iter.   Inner-Iter.     Column Row Layer    Maximum-Head-Change  Column Row Layer    Maximum-Flux-Residual          L2-NORM 
          0                 1           2             1    1     1      -0.3899207287E-01       1    7    1        -0.1111594278E-02      0.2037811544E-01
          0                 2           2             1    1     1       0.3615124148E-02       1    1    1         0.1111517306E-03      0.1987401151E-02
          0                 3           2            51    1     1      -0.3032123032E-03       1    7    1        -0.1000401913E-04      0.1850191627E-03
          0                 4           1            51    1     1       0.2390053115E-04      29    4    1        -0.9148700375E-06      0.1580114797E-04
          0                 5           1            51    1     1      -0.1649125330E-05       7    4    1         0.8795608508E-07      0.1183067957E-05
          0                 6           1            51    1     1       0.9827983490E-07       4    4    1        -0.6751374571E-08      0.7618834072E-07

    ------------------------------------------------
       NWT REQUIRED            6 OUTER ITERATIONS 
       AND A TOTAL OF          9 INNER ITERATIONS.
    ------------------------------------------------

 NO OUTPUT CONTROL FOR STRESS PERIOD   32   TIME STEP   22
 
 WELLS WITH REDUCED PUMPING FOR STRESS PERIOD    32 TIME STEP    22
   LAY   ROW   COL         APPL.Q          ACT.Q        GW-HEAD       CELL-BOT
     1     3    50  -0.127999E+01  -0.409057E+00   0.422523E+01   0.000000E+00
     1     5    55  -0.127999E+01  -0.319883E+00   0.362175E+01   0.000000E+00
 
 
 SOLVING FOR HEAD 
                                                   Max.-Head-Change                         Max.-Flux-Residual
  Residual-Control   Outer-Iter.   Inner-Iter.     Column Row Layer    Maximum-Head-Change  Column Row Layer    Maximum-Flux-Residual          L2-NORM 
          0                 1           2             1    1     1      -0.4234978314E-01       1    7    1        -0.1100843868E-02      0.2014302067E-01
          0                 2           2             1    1     1       0.3919225163E-02       1    1    1         0.1100745183E-03      0.1967202360E-02
          0                 3           2             1    1     1      -0.3260801619E-03       1    7    1        -0.9907118754E-05      0.1835059547E-03
          0                 4           1            51    1     1       0.2433338899E-04      29    4    1        -0.9236618741E-06      0.1571638591E-04
          0                 5           1            51    1     1      -0.1673313399E-05      29    4    1         0.8807912089E-07      0.1176727730E-05
          0                 6           1            51    1     1       0.9944037114E-07       2    4    1        -0.6736787128E-08      0.7580531075E-07

    ------------------------------------------------
       NWT REQUIRED            6 OUTER ITERATIONS 
       AND A TOTAL OF          9 INNER ITERATIONS.
    ------------------------------------------------

 NO OUTPUT CONTROL FOR STRESS PERIOD   32   TIME STEP   23
 
 WELLS WITH REDUCED PUMPING FOR STRESS PERIOD    32 TIME STEP    23
   LAY   ROW   COL         APPL.Q          ACT.Q        GW-HEAD       CELL-BOT
     1     3    50  -0.128002E+01  -0.407688E+00   0.421666E+01   0.000000E+00
     1     5    55  -0.128002E+01  -0.318768E+00   0.361436E+01   0.000000E+00
 
 
 SOLVING FOR HEAD 
                                                   Max.-Head-Change                         Max.-Flux-Residual
  Residual-Control   Outer-Iter.   Inner-Iter.     Column Row Layer    Maximum-Head-Change  Column Row Layer    Maximum-Flux-Residual          L2-NORM 
          0                 1           3             1    1     1      -0.4640455428E-01       1    7    1        -0.1087114156E-02      0.1993253161E-01
          0                 2           2             1    1     1       0.4284231899E-02       1    7    1         0.1087058146E-03      0.1942800079E-02
          0                 3           2             1    1     1      -0.3553816115E-03       1    7    1        -0.9783938283E-05      0.1811264507E-03
          0                 4           1             1    1     1       0.2615256380E-04      30    4    1        -0.9576580968E-06      0.1553590772E-04
          0                 5           1            52    1     1      -0.1735659070E-05      30    4    1         0.9136242163E-07      0.1161609050E-05
          0                 6           1            52    1     1       0.1012860626E-06      30    4    1        -0.6765143112E-08      0.7480919398E-07

    ------------------------------------------------
       NWT REQUIRED            6 OUTER ITERATIONS 
       AND A TOTAL OF         10 INNER ITERATIONS.
    ------------------------------------------------

 NO OUTPUT CONTROL FOR STRESS PERIOD   32   TIME STEP   24
 
 WELLS WITH REDUCED PUMPING FOR STRESS PERIOD    32 TIME STEP    24
   LAY   ROW   COL         APPL.Q          ACT.Q        GW-HEAD       CELL-BOT
     1     3    50  -0.127999E+01  -0.406283E+00   0.420799E+01   0.000000E+00
     1     5    55  -0.127999E+01  -0.317612E+00   0.360680E+01   0.000000E+00
 
 
 SOLVING FOR HEAD 
                                                   Max.-Head-Change                         Max.-Flux-Residual
  Residual-Control   Outer-Iter.   Inner-Iter.     Column Row Layer    Maximum-Head-Change  Column Row Layer    Maximum-Flux-Residual          L2-NORM 
          0                 1           3             1    1     1      -0.5096562294E-01       1    7    1        -0.1083126538E-02      0.1975884173E-01
          0                 2           2             1    1     1       0.4697285372E-02       1    7    1         0.1083079131E-03      0.1925065688E-02
          0                 3           2             1    1     1      -0.3887745245E-03       1    7    1        -0.9748163762E-05      0.1795241876E-03
          0                 4           1             1    1     1       0.2851336014E-04      30    4    1        -0.9606977063E-06      0.1542436193E-04
          0                 5           1            52    1     1      -0.1819127550E-05      30    4    1         0.9179229465E-07      0.1150562650E-05
          0                 6           1            52    1     1       0.1052929779E-06      30    4    1        -0.6805207065E-08      0.7401367297E-07

    ------------------------------------------------
       NWT REQUIRED            6 OUTER ITERATIONS 
       AND A TOTAL OF         10 INNER ITERATIONS.
    ------------------------------------------------

 NO OUTPUT CONTROL FOR STRESS PERIOD   32   TIME STEP   25
 
 WELLS WITH REDUCED PUMPING FOR STRESS PERIOD    32 TIME STEP    25
   LAY   ROW   COL         APPL.Q          ACT.Q        GW-HEAD       CELL-BOT
     1     3    50  -0.128001E+01  -0.404850E+00   0.419904E+01   0.000000E+00
     1     5    55  -0.128001E+01  -0.316421E+00   0.359891E+01   0.000000E+00
 
 
 SOLVING FOR HEAD 
                                                   Max.-Head-Change                         Max.-Flux-Residual
  Residual-Control   Outer-Iter.   Inner-Iter.     Column Row Layer    Maximum-Head-Change  Column Row Layer    Maximum-Flux-Residual          L2-NORM 
          0                 1           3             1    1     1      -0.5599269909E-01       1    7    1        -0.1081596934E-02      0.1959739106E-01
          0                 2           2             1    1     1       0.5152661737E-02       1    7    1         0.1081546466E-03      0.1908556274E-02
          0                 3           2             1    1     1      -0.4255872936E-03       1    7    1        -0.9734421290E-05      0.1780479598E-03
          0                 4           1             1    1     1       0.3110737720E-04      30    4    1        -0.9184838401E-06      0.1532415078E-04
          0                 5           1             1    1     1      -0.1899081048E-05      30    4    1         0.8956130948E-07      0.1138942307E-05
          0                 6           1            53    1     1       0.1100494296E-06       9    4    1        -0.6720124901E-08      0.7311979837E-07

    ------------------------------------------------
       NWT REQUIRED            6 OUTER ITERATIONS 
       AND A TOTAL OF         10 INNER ITERATIONS.
    ------------------------------------------------

 NO OUTPUT CONTROL FOR STRESS PERIOD   32   TIME STEP   26
 
 WELLS WITH REDUCED PUMPING FOR STRESS PERIOD    32 TIME STEP    26
   LAY   ROW   COL         APPL.Q          ACT.Q        GW-HEAD       CELL-BOT
     1     3    50  -0.128001E+01  -0.403376E+00   0.418988E+01   0.000000E+00
     1     5    55  -0.128001E+01  -0.315182E+00   0.359075E+01   0.000000E+00
 
 
 SOLVING FOR HEAD 
                                                   Max.-Head-Change                         Max.-Flux-Residual
  Residual-Control   Outer-Iter.   Inner-Iter.     Column Row Layer    Maximum-Head-Change  Column Row Layer    Maximum-Flux-Residual          L2-NORM 
          0                 1           3             1    1     1      -0.6151230328E-01       1    7    1        -0.1080395288E-02      0.1944575380E-01
          0                 2           2             1    1     1       0.5652475060E-02       1    7    1         0.1080338874E-03      0.1892957650E-02
          0                 3           2             1    1     1      -0.4659596841E-03       1    7    1        -0.9723611970E-05      0.1766105643E-03
          0                 4           1             1    1     1       0.3393977141E-04      30    4    1        -0.9157423104E-06      0.1522286161E-04
          0                 5           1             1    1     1      -0.2031110129E-05      30    4    1         0.8990236289E-07      0.1125293828E-05
          0                 6           1            53    1     1       0.1143013201E-06       9    4    1        -0.6780158657E-08      0.7202682843E-07

    ------------------------------------------------
       NWT REQUIRED            6 OUTER ITERATIONS 
       AND A TOTAL OF         10 INNER ITERATIONS.
    ------------------------------------------------

 NO OUTPUT CONTROL FOR STRESS PERIOD   32   TIME STEP   27
 
 WELLS WITH REDUCED PUMPING FOR STRESS PERIOD    32 TIME STEP    27
   LAY   ROW   COL         APPL.Q          ACT.Q        GW-HEAD       CELL-BOT
     1     3    50  -0.128000E+01  -0.401861E+00   0.418044E+01   0.000000E+00
     1     5    55  -0.128000E+01  -0.313895E+00   0.358225E+01   0.000000E+00
 
 
 SOLVING FOR HEAD 
                                                   Max.-Head-Change                         Max.-Flux-Residual
  Residual-Control   Outer-Iter.   Inner-Iter.     Column Row Layer    Maximum-Head-Change  Column Row Layer    Maximum-Flux-Residual          L2-NORM 
          0                 1           3             1    1     1      -0.6755150504E-01       1    7    1        -0.1079126733E-02      0.1929687265E-01
          0                 2           2             1    1     1       0.6188301252E-02       1    7    1         0.1079061205E-03      0.1878188042E-02
          0                 3           2             1    1     1      -0.5085454562E-03       1    7    1        -0.9712191297E-05      0.1756053136E-03
          0                 4           1             1    1     1       0.3685941379E-04       5    4    1        -0.1028335397E-05      0.1519357506E-04
          0                 5           1             1    1     1      -0.2150914526E-05       9    4    1         0.1048548164E-06      0.1117608157E-05
          0                 6           1            53    1     1       0.1175325693E-06       4    4    1        -0.7721471462E-08      0.7136034534E-07

    ------------------------------------------------
       NWT REQUIRED            6 OUTER ITERATIONS 
       AND A TOTAL OF         10 INNER ITERATIONS.
    ------------------------------------------------

 NO OUTPUT CONTROL FOR STRESS PERIOD   32   TIME STEP   28
 
 WELLS WITH REDUCED PUMPING FOR STRESS PERIOD    32 TIME STEP    28
   LAY   ROW   COL         APPL.Q          ACT.Q        GW-HEAD       CELL-BOT
     1     3    50  -0.127998E+01  -0.400298E+00   0.417075E+01   0.000000E+00
     1     5    55  -0.127998E+01  -0.312554E+00   0.357342E+01   0.000000E+00
 
 
 SOLVING FOR HEAD 
                                                   Max.-Head-Change                         Max.-Flux-Residual
  Residual-Control   Outer-Iter.   Inner-Iter.     Column Row Layer    Maximum-Head-Change  Column Row Layer    Maximum-Flux-Residual          L2-NORM 
          0                 1           3             1    1     1      -0.7372752752E-01       1    7    1        -0.1077624185E-02      0.1913069707E-01
          0                 2           2             1    1     1       0.6671566501E-02       1    7    1         0.1077493695E-03      0.1864196422E-02
          0                 3           2             1    1     1      -0.5411173461E-03       1    7    1        -0.9698273260E-05      0.1748713031E-03
          0                 4           1            15    7     1       0.3894586216E-04       4    4    1        -0.1057389390E-05      0.1519591932E-04
          0                 5           1             1    1     1      -0.2163605522E-05       9    4    1         0.1067097415E-06      0.1110646573E-05
          0                 6           1            53    1     1       0.1195843870E-06       4    4    1        -0.7765748933E-08      0.7070824757E-07

    ------------------------------------------------
       NWT REQUIRED            6 OUTER ITERATIONS 
       AND A TOTAL OF         10 INNER ITERATIONS.
    ------------------------------------------------

 NO OUTPUT CONTROL FOR STRESS PERIOD   32   TIME STEP   29
 
 WELLS WITH REDUCED PUMPING FOR STRESS PERIOD    32 TIME STEP    29
   LAY   ROW   COL         APPL.Q          ACT.Q        GW-HEAD       CELL-BOT
     1     3    50  -0.128001E+01  -0.398695E+00   0.416067E+01   0.000000E+00
     1     5    55  -0.128001E+01  -0.311163E+00   0.356414E+01   0.000000E+00
 
 
 SOLVING FOR HEAD 
                                                   Max.-Head-Change                         Max.-Flux-Residual
  Residual-Control   Outer-Iter.   Inner-Iter.     Column Row Layer    Maximum-Head-Change  Column Row Layer    Maximum-Flux-Residual          L2-NORM 
          0                 1           3             2    1     1      -0.8057715389E-01       1    7    1        -0.1070334314E-02      0.1896882936E-01
          0                 2           2             2    1     1       0.7279904399E-02       1    7    1         0.1070196432E-03      0.1846469538E-02
          0                 3           2             3    1     1      -0.5891855593E-03       1    7    1        -0.9632678238E-05      0.1733057655E-03
          0                 4           1             3    1     1       0.4187893111E-04       1    4    1        -0.1047989954E-05      0.1509606214E-04
          0                 5           1             1    1     1      -0.2250724440E-05       9    4    1         0.1057808490E-06      0.1093035203E-05
          0                 6           1            53    1     1       0.1201133583E-06       2    4    1        -0.7643475186E-08      0.6936593636E-07

    ------------------------------------------------
       NWT REQUIRED            6 OUTER ITERATIONS 
       AND A TOTAL OF         10 INNER ITERATIONS.
    ------------------------------------------------

 NO OUTPUT CONTROL FOR STRESS PERIOD   32   TIME STEP   30
 
 WELLS WITH REDUCED PUMPING FOR STRESS PERIOD    32 TIME STEP    30
   LAY   ROW   COL         APPL.Q          ACT.Q        GW-HEAD       CELL-BOT
     1     3    50  -0.127999E+01  -0.397061E+00   0.415050E+01   0.000000E+00
     1     5    55  -0.127999E+01  -0.309732E+00   0.355468E+01   0.000000E+00
 



 STREAM LISTING     PERIOD     32   STEP       30

 LAYER ROW COL. STREAM  RCH.   FLOW INTO    STREAM     FLOW OUT OF   OVRLND.    DIRECT     STREAM      STREAM      STREAM     STREAM  STREAMBED   FLOW TO   CHNG. UNSAT. 
                SEG.NO.  NO.   STRM. RCH.    LOSS       STRM. RCH.   RUNOFF     PRECIP       ET         HEAD        DEPTH      WIDTH  CONDCTNC.   WAT. TAB.

   1    4    1     1     1    6.2700E+00  2.0425E-03   6.2680E+00  0.000E+00  0.000E+00  0.000E+00  1.41746E+02  1.896E+00  4.081E+00  8.524E-04  2.037E-03  5.061E-06
   1    4    2     1     2    6.2680E+00  2.0420E-03   6.2659E+00  0.000E+00  0.000E+00  0.000E+00  1.41446E+02  1.896E+00  4.081E+00  8.523E-04  2.037E-03  4.986E-06
   1    4    3     1     3    6.2659E+00  2.0415E-03   6.2639E+00  0.000E+00  0.000E+00  0.000E+00  1.41146E+02  1.896E+00  4.080E+00  8.522E-04  2.037E-03  4.891E-06
   1    4    4     1     4    6.2639E+00  2.0409E-03   6.2618E+00  0.000E+00  0.000E+00  0.000E+00  1.40845E+02  1.895E+00  4.080E+00  8.521E-04  2.036E-03  4.762E-06
   1    4    5     1     5    6.2618E+00  2.0404E-03   6.2598E+00  0.000E+00  0.000E+00  0.000E+00  1.40545E+02  1.895E+00  4.080E+00  8.520E-04  2.036E-03  4.576E-06
   1    4    6     1     6    6.2598E+00  2.0399E-03   6.2578E+00  0.000E+00  0.000E+00  0.000E+00  1.40245E+02  1.895E+00  4.079E+00  8.519E-04  2.036E-03  4.363E-06
   1    4    7     1     7    6.2578E+00  2.0394E-03   6.2557E+00  0.000E+00  0.000E+00  0.000E+00  1.39944E+02  1.894E+00  4.079E+00  8.518E-04  2.035E-03  4.130E-06
   1    4    8     1     8    6.2557E+00  2.0389E-03   6.2537E+00  0.000E+00  0.000E+00  0.000E+00  1.39644E+02  1.894E+00  4.078E+00  8.517E-04  2.035E-03  3.878E-06
   1    4    9     1     9    6.2537E+00  2.0384E-03   6.2516E+00  0.000E+00  0.000E+00  0.000E+00  1.39344E+02  1.894E+00  4.078E+00  8.516E-04  2.035E-03  3.604E-06
   1    4   10     1    10    6.2516E+00  2.0378E-03   6.2496E+00  0.000E+00  0.000E+00  0.000E+00  1.39043E+02  1.893E+00  4.078E+00  8.515E-04  2.035E-03  3.291E-06
   1    4   11     1    11    6.2496E+00  2.0373E-03   6.2476E+00  0.000E+00  0.000E+00  0.000E+00  1.38743E+02  1.893E+00  4.077E+00  8.514E-04  2.034E-03  2.931E-06
   1    4   12     1    12    6.2476E+00  2.0368E-03   6.2455E+00  0.000E+00  0.000E+00  0.000E+00  1.38443E+02  1.893E+00  4.077E+00  8.513E-04  2.034E-03  2.540E-06
   1    4   13     1    13    6.2455E+00  2.0363E-03   6.2435E+00  0.000E+00  0.000E+00  0.000E+00  1.38142E+02  1.892E+00  4.077E+00  8.512E-04  2.034E-03  2.140E-06
   1    4   14     1    14    6.2435E+00  2.0358E-03   6.2415E+00  0.000E+00  0.000E+00  0.000E+00  1.37842E+02  1.892E+00  4.076E+00  8.511E-04  2.026E-03  1.019E-05
   1    4   15     1    15    6.2415E+00  2.0352E-03   6.2394E+00  0.000E+00  0.000E+00  0.000E+00  1.37542E+02  1.892E+00  4.076E+00  8.509E-04  2.000E-03  3.494E-05
   1    4   16     1    16    6.2394E+00  2.0347E-03   6.2374E+00  0.000E+00  0.000E+00  0.000E+00  1.37241E+02  1.891E+00  4.075E+00  8.508E-04  1.972E-03  6.322E-05
   1    4   17     1    17    6.2374E+00  2.0342E-03   6.2353E+00  0.000E+00  0.000E+00  0.000E+00  1.36941E+02  1.891E+00  4.075E+00  8.507E-04  1.964E-03  7.058E-05
   1    4   18     1    18    6.2353E+00  2.0337E-03   6.2333E+00  0.000E+00  0.000E+00  0.000E+00  1.36641E+02  1.891E+00  4.075E+00  8.506E-04  1.964E-03  7.006E-05
   1    4   19     1    19    6.2333E+00  2.0332E-03   6.2313E+00  0.000E+00  0.000E+00  0.000E+00  1.36340E+02  1.890E+00  4.074E+00  8.505E-04  1.964E-03  6.948E-05
   1    4   20     1    20    6.2313E+00  2.0326E-03   6.2292E+00  0.000E+00  0.000E+00  0.000E+00  1.36040E+02  1.890E+00  4.074E+00  8.504E-04  1.964E-03  6.885E-05
   1    4   21     1    21    6.2292E+00  2.0321E-03   6.2272E+00  0.000E+00  0.000E+00  0.000E+00  1.35740E+02  1.890E+00  4.074E+00  8.503E-04  1.964E-03  6.819E-05
   1    4   22     1    22    6.2272E+00  2.0316E-03   6.2252E+00  0.000E+00  0.000E+00  0.000E+00  1.35440E+02  1.890E+00  4.073E+00  8.502E-04  1.964E-03  6.748E-05
   1    4   23     1    23    6.2252E+00  2.0311E-03   6.2232E+00  0.000E+00  0.000E+00  0.000E+00  1.35139E+02  1.889E+00  4.073E+00  8.501E-04  1.964E-03  6.673E-05
   1    4   24     1    24    6.2232E+00  2.0306E-03   6.2211E+00  0.000E+00  0.000E+00  0.000E+00  1.34839E+02  1.889E+00  4.072E+00  8.500E-04  1.965E-03  6.593E-05
   1    4   25     1    25    6.2211E+00  2.0301E-03   6.2191E+00  0.000E+00  0.000E+00  0.000E+00  1.34539E+02  1.889E+00  4.072E+00  8.499E-04  1.965E-03  6.509E-05
   1    4   26     1    26    6.2191E+00  2.0295E-03   6.2171E+00  0.000E+00  0.000E+00  0.000E+00  1.34238E+02  1.888E+00  4.072E+00  8.498E-04  1.965E-03  6.420E-05
   1    4   27     1    27    6.2171E+00  2.0290E-03   6.2150E+00  0.000E+00  0.000E+00  0.000E+00  1.33938E+02  1.888E+00  4.071E+00  8.497E-04  1.966E-03  6.326E-05
   1    4   28     1    28    6.2150E+00  2.0285E-03   6.2130E+00  0.000E+00  0.000E+00  0.000E+00  1.33638E+02  1.888E+00  4.071E+00  8.496E-04  1.967E-03  6.163E-05
   1    4   29     1    29    6.2130E+00  2.0280E-03   6.2110E+00  0.000E+00  0.000E+00  0.000E+00  1.33337E+02  1.887E+00  4.070E+00  8.495E-04  1.968E-03  5.997E-05
   1    4   30     1    30    6.2110E+00  2.0275E-03   6.2090E+00  0.000E+00  0.000E+00  0.000E+00  1.33037E+02  1.887E+00  4.070E+00  8.494E-04  1.969E-03  5.873E-05
   1    4   31     1    31    6.2090E+00  2.0270E-03   6.2069E+00  0.000E+00  0.000E+00  0.000E+00  1.32737E+02  1.887E+00  4.070E+00  8.493E-04  1.988E-03  3.879E-05
   1    4   32     1    32    6.2069E+00  2.0264E-03   6.2049E+00  0.000E+00  0.000E+00  0.000E+00  1.32436E+02  1.886E+00  4.069E+00  8.492E-04  1.989E-03  3.731E-05
   1    4   33     1    33    6.2049E+00  2.0259E-03   6.2029E+00  0.000E+00  0.000E+00  0.000E+00  1.32136E+02  1.886E+00  4.069E+00  8.491E-04  1.990E-03  3.577E-05
   1    4   34     1    34    6.2029E+00  2.0254E-03   6.2008E+00  0.000E+00  0.000E+00  0.000E+00  1.31836E+02  1.886E+00  4.069E+00  8.490E-04  1.991E-03  3.416E-05
   1    4   35     1    35    6.2008E+00  2.0249E-03   6.1988E+00  0.000E+00  0.000E+00  0.000E+00  1.31535E+02  1.885E+00  4.068E+00  8.489E-04  1.992E-03  3.250E-05
   1    4   36     1    36    6.1988E+00  2.0244E-03   6.1968E+00  0.000E+00  0.000E+00  0.000E+00  1.31235E+02  1.885E+00  4.068E+00  8.488E-04  1.994E-03  3.081E-05
   1    4   37     1    37    6.1968E+00  2.0239E-03   6.1948E+00  0.000E+00  0.000E+00  0.000E+00  1.30935E+02  1.885E+00  4.067E+00  8.487E-04  1.995E-03  2.910E-05
   1    4   38     1    38    6.1948E+00  2.0233E-03   6.1927E+00  0.000E+00  0.000E+00  0.000E+00  1.30634E+02  1.884E+00  4.067E+00  8.486E-04  1.996E-03  2.740E-05
   1    4   39     1    39    6.1927E+00  2.0228E-03   6.1907E+00  0.000E+00  0.000E+00  0.000E+00  1.30334E+02  1.884E+00  4.067E+00  8.485E-04  2.014E-03  9.033E-06
   1    4   40     1    40    6.1907E+00  2.0223E-03   6.1887E+00  0.000E+00  0.000E+00  0.000E+00  1.30034E+02  1.884E+00  4.066E+00  8.484E-04  2.028E-03 -5.858E-06
   1    4   41     1    41    6.1887E+00  2.0218E-03   6.1867E+00  0.000E+00  0.000E+00  0.000E+00  1.29733E+02  1.883E+00  4.066E+00  8.483E-04  2.029E-03 -7.413E-06
   1    4   42     1    42    6.1867E+00  2.0213E-03   6.1847E+00  0.000E+00  0.000E+00  0.000E+00  1.29433E+02  1.883E+00  4.066E+00  8.482E-04  2.030E-03 -8.828E-06
   1    4   43     1    43    6.1847E+00  2.0208E-03   6.1826E+00  0.000E+00  0.000E+00  0.000E+00  1.29133E+02  1.883E+00  4.065E+00  8.481E-04  2.031E-03 -1.009E-05
   1    4   44     1    44    6.1826E+00  2.0203E-03   6.1806E+00  0.000E+00  0.000E+00  0.000E+00  1.28833E+02  1.883E+00  4.065E+00  8.479E-04  2.031E-03 -1.124E-05
   1    4   45     1    45    6.1806E+00  2.0197E-03   6.1786E+00  0.000E+00  0.000E+00  0.000E+00  1.28532E+02  1.882E+00  4.064E+00  8.478E-04  2.078E-03 -5.778E-05
   1    4   46     1    46    6.1786E+00  2.0192E-03   6.1766E+00  0.000E+00  0.000E+00  0.000E+00  1.28232E+02  1.882E+00  4.064E+00  8.477E-04  2.098E-03 -7.908E-05
   1    4   47     1    47    6.1766E+00  2.0187E-03   6.1746E+00  0.000E+00  0.000E+00  0.000E+00  1.27932E+02  1.882E+00  4.064E+00  8.476E-04  2.100E-03 -8.173E-05
   1    4   48     1    48    6.1746E+00  2.0182E-03   6.1725E+00  0.000E+00  0.000E+00  0.000E+00  1.27631E+02  1.881E+00  4.063E+00  8.475E-04  2.104E-03 -8.572E-05
   1    4   49     1    49    6.1725E+00  2.0177E-03   6.1705E+00  0.000E+00  0.000E+00  0.000E+00  1.27331E+02  1.881E+00  4.063E+00  8.474E-04  2.019E-03 -1.139E-06
   1    4   50     1    50    6.1705E+00  2.0172E-03   6.1685E+00  0.000E+00  0.000E+00  0.000E+00  1.27031E+02  1.881E+00  4.063E+00  8.473E-04  1.932E-03  8.489E-05
   1    4   51     1    51    6.1685E+00  2.0167E-03   6.1665E+00  0.000E+00  0.000E+00  0.000E+00  1.26730E+02  1.880E+00  4.062E+00  8.472E-04  1.913E-03  1.035E-04
   1    4   52     1    52    6.1665E+00  2.0161E-03   6.1645E+00  0.000E+00  0.000E+00  0.000E+00  1.26430E+02  1.880E+00  4.062E+00  8.471E-04  1.904E-03  1.123E-04
   1    4   53     1    53    6.1645E+00  2.0156E-03   6.1625E+00  0.000E+00  0.000E+00  0.000E+00  1.26130E+02  1.880E+00  4.061E+00  8.470E-04  1.904E-03  1.121E-04
   1    4   54     1    54    6.1625E+00  2.0151E-03   6.1604E+00  0.000E+00  0.000E+00  0.000E+00  1.25829E+02  1.879E+00  4.061E+00  8.469E-04  1.912E-03  1.033E-04
   1    4   55     1    55    6.1604E+00  2.0146E-03   6.1584E+00  0.000E+00  0.000E+00  0.000E+00  1.25529E+02  1.879E+00  4.061E+00  8.468E-04  1.930E-03  8.454E-05
   1    4   56     1    56    6.1584E+00  2.0141E-03   6.1564E+00  0.000E+00  0.000E+00  0.000E+00  1.25229E+02  1.879E+00  4.060E+00  8.467E-04  2.004E-03  9.671E-06
   1    4   57     1    57    6.1564E+00  2.0136E-03   6.1544E+00  0.000E+00  0.000E+00  0.000E+00  1.24928E+02  1.878E+00  4.060E+00  8.466E-04  2.100E-03 -8.655E-05
   1    4   58     1    58    6.1544E+00  2.0131E-03   6.1524E+00  0.000E+00  0.000E+00  0.000E+00  1.24628E+02  1.878E+00  4.060E+00  8.465E-04  2.099E-03 -8.572E-05
   1    4   59     1    59    6.1524E+00  2.0125E-03   6.1504E+00  0.000E+00  0.000E+00  0.000E+00  1.24328E+02  1.878E+00  4.059E+00  8.464E-04  2.096E-03 -8.328E-05
   1    4   60     1    60    6.1504E+00  2.0120E-03   6.1484E+00  0.000E+00  0.000E+00  0.000E+00  1.24027E+02  1.877E+00  4.059E+00  8.463E-04  2.094E-03 -8.179E-05
   1    4   61     1    61    6.1484E+00  2.0115E-03   6.1464E+00  0.000E+00  0.000E+00  0.000E+00  1.23727E+02  1.877E+00  4.058E+00  8.462E-04  2.027E-03 -1.550E-05
   1    4   62     1    62    6.1464E+00  2.0110E-03   6.1443E+00  0.000E+00  0.000E+00  0.000E+00  1.23427E+02  1.877E+00  4.058E+00  8.461E-04  2.026E-03 -1.459E-05
   1    4   63     1    63    6.1443E+00  2.0105E-03   6.1423E+00  0.000E+00  0.000E+00  0.000E+00  1.23127E+02  1.877E+00  4.058E+00  8.460E-04  2.024E-03 -1.370E-05
   1    4   64     1    64    6.1423E+00  2.0100E-03   6.1403E+00  0.000E+00  0.000E+00  0.000E+00  1.22826E+02  1.876E+00  4.057E+00  8.459E-04  2.023E-03 -1.279E-05
   1    4   65     1    65    6.1403E+00  2.0095E-03   6.1383E+00  0.000E+00  0.000E+00  0.000E+00  1.22526E+02  1.876E+00  4.057E+00  8.458E-04  2.021E-03 -1.187E-05
   1    4   66     1    66    6.1383E+00  2.0090E-03   6.1363E+00  0.000E+00  0.000E+00  0.000E+00  1.22226E+02  1.876E+00  4.056E+00  8.457E-04  2.020E-03 -1.100E-05
   1    4   67     1    67    6.1363E+00  2.0084E-03   6.1343E+00  0.000E+00  0.000E+00  0.000E+00  1.21925E+02  1.875E+00  4.056E+00  8.456E-04  2.019E-03 -1.022E-05
   1    4   68     1    68    6.1343E+00  2.0079E-03   6.1323E+00  0.000E+00  0.000E+00  0.000E+00  1.21625E+02  1.875E+00  4.056E+00  8.455E-04  2.017E-03 -9.561E-06
   1    4   69     1    69    6.1323E+00  2.0074E-03   6.1303E+00  0.000E+00  0.000E+00  0.000E+00  1.21325E+02  1.875E+00  4.055E+00  8.454E-04  1.989E-03  1.851E-05
   1    4   70     1    70    6.1303E+00  2.0069E-03   6.1283E+00  0.000E+00  0.000E+00  0.000E+00  1.21024E+02  1.874E+00  4.055E+00  8.453E-04  1.988E-03  1.874E-05
   1    4   71     1    71    6.1283E+00  2.0064E-03   6.1263E+00  0.000E+00  0.000E+00  0.000E+00  1.20724E+02  1.874E+00  4.055E+00  8.452E-04  1.988E-03  1.879E-05
   1    4   72     1    72    6.1263E+00  2.0059E-03   6.1243E+00  0.000E+00  0.000E+00  0.000E+00  1.20424E+02  1.874E+00  4.054E+00  8.451E-04  1.987E-03  1.867E-05
   1    4   73     1    73    6.1243E+00  2.0054E-03   6.1223E+00  0.000E+00  0.000E+00  0.000E+00  1.20123E+02  1.873E+00  4.054E+00  8.450E-04  1.987E-03  1.837E-05
   1    4   74     1    74    6.1223E+00  2.0049E-03   6.1203E+00  0.000E+00  0.000E+00  0.000E+00  1.19823E+02  1.873E+00  4.053E+00  8.448E-04  1.987E-03  1.789E-05
   1    4   75     1    75    6.1203E+00  2.0043E-03   6.1182E+00  0.000E+00  0.000E+00  0.000E+00  1.19523E+02  1.873E+00  4.053E+00  8.447E-04  1.968E-03  3.614E-05
   1    4   76     1    76    6.1182E+00  2.0038E-03   6.1162E+00  0.000E+00  0.000E+00  0.000E+00  1.19222E+02  1.872E+00  4.053E+00  8.446E-04  1.969E-03  3.531E-05
   1    4   77     1    77    6.1162E+00  2.0033E-03   6.1142E+00  0.000E+00  0.000E+00  0.000E+00  1.18922E+02  1.872E+00  4.052E+00  8.445E-04  1.969E-03  3.431E-05
   1    4   78     1    78    6.1142E+00  2.0028E-03   6.1122E+00  0.000E+00  0.000E+00  0.000E+00  1.18622E+02  1.872E+00  4.052E+00  8.444E-04  1.970E-03  3.316E-05
   1    4   79     1    79    6.1122E+00  2.0023E-03   6.1102E+00  0.000E+00  0.000E+00  0.000E+00  1.18321E+02  1.871E+00  4.052E+00  8.443E-04  1.970E-03  3.186E-05
   1    4   80     1    80    6.1102E+00  2.0018E-03   6.1082E+00  0.000E+00  0.000E+00  0.000E+00  1.18021E+02  1.871E+00  4.051E+00  8.442E-04  1.971E-03  3.042E-05
   1    4   81     1    81    6.1082E+00  2.0013E-03   6.1062E+00  0.000E+00  0.000E+00  0.000E+00  1.17721E+02  1.871E+00  4.051E+00  8.441E-04  1.972E-03  2.884E-05
   1    4   82     1    82    6.1062E+00  2.0008E-03   6.1042E+00  0.000E+00  0.000E+00  0.000E+00  1.17421E+02  1.871E+00  4.050E+00  8.440E-04  1.974E-03  2.713E-05
   1    4   83     1    83    6.1042E+00  2.0003E-03   6.1022E+00  0.000E+00  0.000E+00  0.000E+00  1.17120E+02  1.870E+00  4.050E+00  8.439E-04  1.975E-03  2.530E-05
   1    4   84     1    84    6.1022E+00  1.9997E-03   6.1002E+00  0.000E+00  0.000E+00  0.000E+00  1.16820E+02  1.870E+00  4.050E+00  8.438E-04  1.976E-03  2.333E-05
   1    4   85     1    85    6.1002E+00  1.9992E-03   6.0982E+00  0.000E+00  0.000E+00  0.000E+00  1.16520E+02  1.870E+00  4.049E+00  8.437E-04  1.978E-03  2.123E-05
   1    4   86     1    86    6.0982E+00  1.9987E-03   6.0962E+00  0.000E+00  0.000E+00  0.000E+00  1.16219E+02  1.869E+00  4.049E+00  8.436E-04  1.980E-03  1.898E-05
   1    4   87     1    87    6.0962E+00  1.9982E-03   6.0942E+00  0.000E+00  0.000E+00  0.000E+00  1.15919E+02  1.869E+00  4.049E+00  8.435E-04  2.040E-03 -4.164E-05
   1    4   88     1    88    6.0942E+00  1.9977E-03   6.0922E+00  0.000E+00  0.000E+00  0.000E+00  1.15619E+02  1.869E+00  4.048E+00  8.434E-04  2.049E-03 -5.144E-05
   1    4   89     1    89    6.0922E+00  1.9972E-03   6.0902E+00  0.000E+00  0.000E+00  0.000E+00  1.15318E+02  1.868E+00  4.048E+00  8.433E-04  2.051E-03 -5.376E-05
   1    4   90     1    90    6.0902E+00  1.9967E-03   6.0882E+00  0.000E+00  0.000E+00  0.000E+00  1.15018E+02  1.868E+00  4.047E+00  8.432E-04  2.053E-03 -5.619E-05
   1    4   91     1    91    6.0882E+00  1.9962E-03   6.0862E+00  0.000E+00  0.000E+00  0.000E+00  1.14718E+02  1.868E+00  4.047E+00  8.431E-04  2.055E-03 -5.866E-05
   1    4   92     1    92    6.0862E+00  1.9957E-03   6.0843E+00  0.000E+00  0.000E+00  0.000E+00  1.14417E+02  1.867E+00  4.047E+00  8.430E-04  2.057E-03 -6.117E-05
   1    4   93     1    93    6.0843E+00  1.9951E-03   6.0823E+00  0.000E+00  0.000E+00  0.000E+00  1.14117E+02  1.867E+00  4.046E+00  8.429E-04  2.059E-03 -6.370E-05
   1    4   94     1    94    6.0823E+00  1.9946E-03   6.0803E+00  0.000E+00  0.000E+00  0.000E+00  1.13817E+02  1.867E+00  4.046E+00  8.428E-04  2.061E-03 -6.624E-05
   1    4   95     1    95    6.0803E+00  1.9941E-03   6.0783E+00  0.000E+00  0.000E+00  0.000E+00  1.13516E+02  1.866E+00  4.046E+00  8.427E-04  2.063E-03 -6.877E-05
   1    4   96     1    96    6.0783E+00  1.9936E-03   6.0763E+00  0.000E+00  0.000E+00  0.000E+00  1.13216E+02  1.866E+00  4.045E+00  8.426E-04  2.065E-03 -7.129E-05
   1    4   97     1    97    6.0763E+00  1.9931E-03   6.0743E+00  0.000E+00  0.000E+00  0.000E+00  1.12916E+02  1.866E+00  4.045E+00  8.425E-04  2.067E-03 -7.378E-05
   1    4   98     1    98    6.0743E+00  1.9926E-03   6.0723E+00  0.000E+00  0.000E+00  0.000E+00  1.12615E+02  1.865E+00  4.044E+00  8.424E-04  2.069E-03 -7.625E-05
   1    4   99     1    99    6.0723E+00  1.9921E-03   6.0703E+00  0.000E+00  0.000E+00  0.000E+00  1.12315E+02  1.865E+00  4.044E+00  8.423E-04  2.071E-03 -7.869E-05
   1    4  100     1   100    6.0703E+00  1.9916E-03   6.0683E+00  0.000E+00  0.000E+00  0.000E+00  1.12015E+02  1.865E+00  4.044E+00  8.422E-04  2.073E-03 -8.112E-05



1
  VOLUMETRIC BUDGET FOR UNSATURATED ZONE BENEATH STREAMS AT END OF TIME STEP    30 STRESS PERIOD  32
  ------------------------------------------------------------------------------------------------

    CUMULATIVE VOLUMES             L**3    RATES FOR THIS TIME STEP         L**3/T
    ------------------                     ------------------------


          STREAM LOSS =     29846358.0000            STREAM LOSS =            0.2017
    CHANGE IN STORAGE =      1438056.2500      CHANGE IN STORAGE =        7.3364E-04
       RECHARGE TO GW =     28415576.0000         RECHARGE TO GW =            0.2010

             TOTAL IN =     29846358.0000               TOTAL IN =            0.2017

            TOTAL OUT =     29853632.0000              TOTAL OUT =            0.2017

             IN - OUT =        -7274.0000               IN - OUT =        4.4703E-08

  PERCENT DISCREPANCY =           -0.01      PERCENT DISCREPANCY =             0.00



1
  VOLUMETRIC BUDGET FOR ENTIRE MODEL AT END OF TIME STEP   30, STRESS PERIOD  32
  ------------------------------------------------------------------------------

     CUMULATIVE VOLUMES      L**3       RATES FOR THIS TIME STEP      L**3/T
     ------------------                 ------------------------

           IN:                                      IN:
           ---                                      ---
             STORAGE     =   101086032.0000               STORAGE     =           0.4637
       CONSTANT HEAD     =           0.0000         CONSTANT HEAD     =           0.0000
               WELLS     =           0.0000                 WELLS     =           0.0000
     HEAD DEP BOUNDS     =      424503.6562       HEAD DEP BOUNDS     =       4.2112E-02
      STREAM LEAKAGE     =    28415372.0000        STREAM LEAKAGE     =           0.2010

                TOTAL IN =   129925904.0000                  TOTAL IN =           0.7068

          OUT:                                     OUT:
          ----                                     ----
             STORAGE     =     3262701.0000               STORAGE     =           0.0000
       CONSTANT HEAD     =           0.0000         CONSTANT HEAD     =           0.0000
               WELLS     =   110277336.0000                 WELLS     =           0.7068
     HEAD DEP BOUNDS     =    16385952.0000       HEAD DEP BOUNDS     =           0.0000
      STREAM LEAKAGE     =           0.0000        STREAM LEAKAGE     =           0.0000

               TOTAL OUT =   129925992.0000                 TOTAL OUT =           0.7068

                IN - OUT =         -88.0000                  IN - OUT =      -5.9605E-08

     PERCENT DISCREPANCY =          -0.00         PERCENT DISCREPANCY =          -0.00






         TIME SUMMARY AT END OF TIME STEP   30 IN STRESS PERIOD   32
                    SECONDS     MINUTES      HOURS       DAYS        YEARS
                    -----------------------------------------------------------
   TIME STEP LENGTH 2.49961E+05  4166.0      69.434      2.8931     7.92080E-03
 STRESS PERIOD TIME 2.59200E+06  43200.      720.00      30.000     8.21355E-02
         TOTAL TIME 8.29440E+07 1.38240E+06  23040.      960.00      2.6283    
1
1
                            STRESS PERIOD NO.   33, LENGTH =   2592000.    
                            -----------------------------------------------

                              NUMBER OF TIME STEPS =    30

                               MULTIPLIER FOR DELT =     1.100

                            INITIAL TIME STEP SIZE =   15757.40    

 REUSING NON-PARAMETER WELLS FROM LAST STRESS PERIOD

      1 WELL 

 REUSING NON-PARAMETER GHB CELLS FROM LAST STRESS PERIOD

      7 GHB CELLS



 CLASSIFICATION & COUNT OF STREAM SEGMENTS BASED ON SOURCE OF INFLOW:

                HEADWATER     DIVERSION     RECEIVES TRIBUTARY FLOW
                ---------     ---------     -----------------------
                     1              0               0



                    INPUT DATA FOR EACH STREAM SEGMENT
 ---------------------------------------------------------------------------------------------

 SEGMENT    SEG.     INFLOW   OVERLAND   STREAM    STREAM   ICALC  OUTFLOW  DIVERSION PRIORITY
    NO.    LENGTH     RATE     RUNOFF      ET       PPT.    METH.  TO SEG.  FROM SEG.    NO.

      1  2.000E+04 2.070E+00 0.000E+00 0.000E+00 0.000E+00    2        0        0        0


         STREAMBED PROPERTIES AND STREAM DIMENSIONS

 SEGMENT     BED HYD. COND.      BED THICKNESS     ELEV.-TOP OF BED     WIDTH OF STREAM     DEPTH OF STREAM    STREAM ROUGHNESS
    No.     UPPER     LOWER     UPPER     LOWER     UPPER     LOWER     UPPER     LOWER     UPPER     LOWER   CHANNEL      BANK

     1  3.500E-07 3.500E-07                                                                                 3.000E-02 4.000E-02

  EIGHT POINT CROSS-SECTION DATA FOR SEGMENTS WITH ICALC = 2
    X VALUES X VALUES START FROM LEFT SIDE LOOKING DOWNSTREAM

     SEGMENT NO.        X1        X2        X3        X4        X5        X6        X7        X8
            1      0.000E+00 2.000E+00 4.000E+00 6.000E+00 8.000E+00 1.000E+01 1.200E+01 1.400E+01

    Z VALUES ARE RELATIVE TO STREAMBED ELEVATION

     SEGMENT NO.          Z1        Z2        Z3        Z4        Z5        Z6        Z7        Z8
            1      6.000E+00 4.500E+00 3.500E+00 0.000E+00 3.000E-01 3.500E+00 4.500E+00 6.000E+00



 
 SOLVING FOR HEAD 
                                                   Max.-Head-Change                         Max.-Flux-Residual
  Residual-Control   Outer-Iter.   Inner-Iter.     Column Row Layer    Maximum-Head-Change  Column Row Layer    Maximum-Flux-Residual          L2-NORM 
          0                 1           2            50    3     1      -0.1631957772E+00      50    3    1        -0.6843585293E-01      0.8882754675E-01
          0                 2           2            50    3     1       0.1553620478E-01      50    3    1         0.6577556789E-02      0.8530198379E-02
          0                 3           2            50    3     1      -0.1389275712E-02      50    3    1        -0.5945087776E-03      0.7717209994E-03
          0                 4           2            50    3     1       0.1101985384E-03      50    3    1         0.4760011257E-04      0.6185254516E-04
          0                 5           1            50    3     1      -0.7676370841E-05      50    3    1        -0.3346367858E-05      0.4351506666E-05
          0                 6           1            50    3     1       0.4609394888E-06      50    3    1         0.2027759122E-06      0.2637933089E-06

    ------------------------------------------------
       NWT REQUIRED            6 OUTER ITERATIONS 
       AND A TOTAL OF         10 INNER ITERATIONS.
    ------------------------------------------------

 NO OUTPUT CONTROL FOR STRESS PERIOD   33   TIME STEP    1
 
 WELLS WITH REDUCED PUMPING FOR STRESS PERIOD    33 TIME STEP     1
   LAY   ROW   COL         APPL.Q          ACT.Q        GW-HEAD       CELL-BOT
     1     3    50  -0.150014E+01  -0.437643E+00   0.400155E+01   0.000000E+00
     1     5    55  -0.150014E+01  -0.341928E+00   0.343419E+01   0.000000E+00
 
 
 SOLVING FOR HEAD 
                                                   Max.-Head-Change                         Max.-Flux-Residual
  Residual-Control   Outer-Iter.   Inner-Iter.     Column Row Layer    Maximum-Head-Change  Column Row Layer    Maximum-Flux-Residual          L2-NORM 
          0                 1           2            50    3     1      -0.8765089684E-01      50    3    1        -0.3406170899E-01      0.4793247757E-01
          0                 2           2            50    3     1       0.8360111681E-02      50    3    1         0.3320357512E-02      0.4658151526E-02
          0                 3           2            50    3     1      -0.7445378023E-03      50    3    1        -0.2996175694E-03      0.4215680288E-03
          0                 4           1            50    3     1       0.5901331957E-04      50    3    1         0.2399320914E-04      0.3388928667E-04
          0                 5           1            50    3     1      -0.4109812808E-05      50    3    1        -0.1686732381E-05      0.2389168000E-05
          0                 6           1            50    3     1       0.2467708281E-06      50    3    1         0.1022087894E-06      0.1450198894E-06

    ------------------------------------------------
       NWT REQUIRED            6 OUTER ITERATIONS 
       AND A TOTAL OF          9 INNER ITERATIONS.
    ------------------------------------------------

 NO OUTPUT CONTROL FOR STRESS PERIOD   33   TIME STEP    2
 
 WELLS WITH REDUCED PUMPING FOR STRESS PERIOD    33 TIME STEP     2
   LAY   ROW   COL         APPL.Q          ACT.Q        GW-HEAD       CELL-BOT
     1     3    50  -0.150025E+01  -0.422982E+00   0.392157E+01   0.000000E+00
     1     5    55  -0.150025E+01  -0.330408E+00   0.336720E+01   0.000000E+00
 
 
 SOLVING FOR HEAD 
                                                   Max.-Head-Change                         Max.-Flux-Residual
  Residual-Control   Outer-Iter.   Inner-Iter.     Column Row Layer    Maximum-Head-Change  Column Row Layer    Maximum-Flux-Residual          L2-NORM 
          0                 1           2            50    3     1      -0.4638697006E-01      50    3    1        -0.1648739628E-01      0.2923236205E-01
          0                 2           2            50    3     1       0.4397441813E-02      50    3    1         0.1623125034E-02      0.2841586304E-02
          0                 3           2            50    3     1      -0.3893690386E-03      50    3    1        -0.1463097916E-03      0.2581095530E-03
          0                 4           1            50    3     1       0.3080998975E-04      50    3    1         0.1171765318E-04      0.2089959930E-04
          0                 5           1            50    3     1      -0.2144518360E-05      50    3    1        -0.8237423432E-06      0.1481722941E-05
          0                 6           1            50    3     1       0.1287524500E-06      50    3    1         0.4991496821E-07      0.9026623077E-07

    ------------------------------------------------
       NWT REQUIRED            6 OUTER ITERATIONS 
       AND A TOTAL OF          9 INNER ITERATIONS.
    ------------------------------------------------

 NO OUTPUT CONTROL FOR STRESS PERIOD   33   TIME STEP    3
 
 WELLS WITH REDUCED PUMPING FOR STRESS PERIOD    33 TIME STEP     3
   LAY   ROW   COL         APPL.Q          ACT.Q        GW-HEAD       CELL-BOT
     1     3    50  -0.149981E+01  -0.415134E+00   0.387922E+01   0.000000E+00
     1     5    55  -0.149981E+01  -0.324061E+00   0.333060E+01   0.000000E+00
 
 
 SOLVING FOR HEAD 
                                                   Max.-Head-Change                         Max.-Flux-Residual
  Residual-Control   Outer-Iter.   Inner-Iter.     Column Row Layer    Maximum-Head-Change  Column Row Layer    Maximum-Flux-Residual          L2-NORM 
          0                 1           2            50    3     1      -0.2546380398E-01      50    3    1        -0.8107210011E-02      0.2250124121E-01
          0                 2           2            50    3     1       0.2375899672E-02      50    3    1         0.8029503567E-03      0.2177849707E-02
          0                 3           2            50    3     1      -0.2088966888E-03      50    3    1        -0.7233367536E-04      0.1988806624E-03
          0                 4           1            50    3     1       0.1648801824E-04      50    3    1         0.5793412893E-05      0.1624646011E-04
          0                 5           1            50    3     1      -0.1146660730E-05      50    3    1        -0.4072667767E-06      0.1160340148E-05
          0                 6           1            50    3     1       0.6882905078E-07      50    3    1         0.2467826207E-07      0.7104471613E-07

    ------------------------------------------------
       NWT REQUIRED            6 OUTER ITERATIONS 
       AND A TOTAL OF          9 INNER ITERATIONS.
    ------------------------------------------------

 NO OUTPUT CONTROL FOR STRESS PERIOD   33   TIME STEP    4
 
 WELLS WITH REDUCED PUMPING FOR STRESS PERIOD    33 TIME STEP     4
   LAY   ROW   COL         APPL.Q          ACT.Q        GW-HEAD       CELL-BOT
     1     3    50  -0.150021E+01  -0.411015E+00   0.385594E+01   0.000000E+00
     1     5    55  -0.150021E+01  -0.320653E+00   0.331005E+01   0.000000E+00
 
 
 SOLVING FOR HEAD 
                                                   Max.-Head-Change                         Max.-Flux-Residual
  Residual-Control   Outer-Iter.   Inner-Iter.     Column Row Layer    Maximum-Head-Change  Column Row Layer    Maximum-Flux-Residual          L2-NORM 
          0                 1           2            50    2     1      -0.1657147190E-01      50    3    1        -0.3967742498E-02      0.2034219202E-01
          0                 2           2            50    2     1       0.1630096297E-02      50    3    1         0.3945339342E-03      0.1969613028E-02
          0                 3           2            50    2     1      -0.1451573317E-03      50    3    1        -0.3552731485E-04      0.1805882264E-03
          0                 4           1            50    2     1       0.1151626814E-04      50    3    1         0.2845596643E-05      0.1484427754E-04
          0                 5           1            50    2     1      -0.8021649063E-06      50    3    1        -0.2000374363E-06      0.1066102760E-05

    ------------------------------------------------
       NWT REQUIRED            5 OUTER ITERATIONS 
       AND A TOTAL OF          8 INNER ITERATIONS.
    ------------------------------------------------

 NO OUTPUT CONTROL FOR STRESS PERIOD   33   TIME STEP    5
 
 WELLS WITH REDUCED PUMPING FOR STRESS PERIOD    33 TIME STEP     5
   LAY   ROW   COL         APPL.Q          ACT.Q        GW-HEAD       CELL-BOT
     1     3    50  -0.150010E+01  -0.408599E+00   0.384277E+01   0.000000E+00
     1     5    55  -0.150010E+01  -0.318640E+00   0.329831E+01   0.000000E+00
 
 
 SOLVING FOR HEAD 
                                                   Max.-Head-Change                         Max.-Flux-Residual
  Residual-Control   Outer-Iter.   Inner-Iter.     Column Row Layer    Maximum-Head-Change  Column Row Layer    Maximum-Flux-Residual          L2-NORM 
          0                 1           2            50    2     1      -0.1519804066E-01      50    2    1        -0.2352506112E-02      0.1968566269E-01
          0                 2           2            50    2     1       0.1494293174E-02      50    2    1         0.2349425580E-03      0.1909032942E-02
          0                 3           2            50    2     1      -0.1330594307E-03      50    2    1        -0.2114805870E-04      0.1754151519E-03
          0                 4           1            50    2     1       0.1055841452E-04      50    2    1         0.1693933884E-05      0.1447370585E-04
          0                 5           1            50    2     1      -0.7355023649E-06      50    2    1        -0.1190820724E-06      0.1043541437E-05

    ------------------------------------------------
       NWT REQUIRED            5 OUTER ITERATIONS 
       AND A TOTAL OF          8 INNER ITERATIONS.
    ------------------------------------------------

 NO OUTPUT CONTROL FOR STRESS PERIOD   33   TIME STEP    6
 
 WELLS WITH REDUCED PUMPING FOR STRESS PERIOD    33 TIME STEP     6
   LAY   ROW   COL         APPL.Q          ACT.Q        GW-HEAD       CELL-BOT
     1     3    50  -0.149991E+01  -0.407093E+00   0.383473E+01   0.000000E+00
     1     5    55  -0.149991E+01  -0.317390E+00   0.329115E+01   0.000000E+00
 
 
 SOLVING FOR HEAD 
                                                   Max.-Head-Change                         Max.-Flux-Residual
  Residual-Control   Outer-Iter.   Inner-Iter.     Column Row Layer    Maximum-Head-Change  Column Row Layer    Maximum-Flux-Residual          L2-NORM 
          0                 1           2            50    2     1      -0.1390235067E-01      50    2    1        -0.1961483106E-02      0.1945133557E-01
          0                 2           2            50    2     1       0.1366361606E-02      50    2    1         0.1958631281E-03      0.1888043338E-02
          0                 3           1            50    2     1      -0.1216350885E-03      50    2    1        -0.1763063159E-04      0.1737343876E-03
          0                 4           1            50    2     1       0.9650843321E-05      50    2    1         0.1412190178E-05      0.1437752952E-04
          0                 5           1            50    2     1      -0.6722665599E-06      50    2    1        -0.9927574959E-07      0.1040108641E-05

    ------------------------------------------------
       NWT REQUIRED            5 OUTER ITERATIONS 
       AND A TOTAL OF          7 INNER ITERATIONS.
    ------------------------------------------------

 NO OUTPUT CONTROL FOR STRESS PERIOD   33   TIME STEP    7
 
 WELLS WITH REDUCED PUMPING FOR STRESS PERIOD    33 TIME STEP     7
   LAY   ROW   COL         APPL.Q          ACT.Q        GW-HEAD       CELL-BOT
     1     3    50  -0.149983E+01  -0.406058E+00   0.382914E+01   0.000000E+00
     1     5    55  -0.149983E+01  -0.316538E+00   0.328622E+01   0.000000E+00
 
 
 SOLVING FOR HEAD 
                                                   Max.-Head-Change                         Max.-Flux-Residual
  Residual-Control   Outer-Iter.   Inner-Iter.     Column Row Layer    Maximum-Head-Change  Column Row Layer    Maximum-Flux-Residual          L2-NORM 
          0                 1           2            50    2     1      -0.1281988831E-01      50    2    1        -0.1631204620E-02      0.1933344419E-01
          0                 2           2            50    2     1       0.1259273235E-02      50    2    1         0.1628881093E-03      0.1877790572E-02
          0                 3           1            50    2     1      -0.1120601471E-03      50    2    1        -0.1466232993E-04      0.1730041722E-03
          0                 4           1            50    2     1       0.8889888312E-05      50    2    1         0.1174433570E-05      0.1435663654E-04
          0                 5           1            50    2     1      -0.6192372354E-06      50    2    1        -0.8256166245E-07      0.1042017534E-05

    ------------------------------------------------
       NWT REQUIRED            5 OUTER ITERATIONS 
       AND A TOTAL OF          7 INNER ITERATIONS.
    ------------------------------------------------

 NO OUTPUT CONTROL FOR STRESS PERIOD   33   TIME STEP    8
 
 WELLS WITH REDUCED PUMPING FOR STRESS PERIOD    33 TIME STEP     8
   LAY   ROW   COL         APPL.Q          ACT.Q        GW-HEAD       CELL-BOT
     1     3    50  -0.149987E+01  -0.405260E+00   0.382466E+01   0.000000E+00
     1     5    55  -0.149987E+01  -0.315888E+00   0.328233E+01   0.000000E+00
 
 
 SOLVING FOR HEAD 
                                                   Max.-Head-Change                         Max.-Flux-Residual
  Residual-Control   Outer-Iter.   Inner-Iter.     Column Row Layer    Maximum-Head-Change  Column Row Layer    Maximum-Flux-Residual          L2-NORM 
          0                 1           2            50    1     1      -0.1213491432E-01      50    2    1        -0.1367521955E-02      0.1925483869E-01
          0                 2           2            50    1     1       0.1200086349E-02      50    2    1         0.1365721388E-03      0.1870879479E-02
          0                 3           1            50    1     1      -0.1069692081E-03      50    2    1        -0.1229336046E-04      0.1725838201E-03
          0                 4           1            50    1     1       0.8488077534E-05      50    2    1         0.9846833242E-06      0.1436069346E-04
          0                 5           1            50    1     1      -0.5911985137E-06       1    4    1         0.7110899958E-07      0.1045760801E-05

    ------------------------------------------------
       NWT REQUIRED            5 OUTER ITERATIONS 
       AND A TOTAL OF          7 INNER ITERATIONS.
    ------------------------------------------------

 NO OUTPUT CONTROL FOR STRESS PERIOD   33   TIME STEP    9
 
 WELLS WITH REDUCED PUMPING FOR STRESS PERIOD    33 TIME STEP     9
   LAY   ROW   COL         APPL.Q          ACT.Q        GW-HEAD       CELL-BOT
     1     3    50  -0.149994E+01  -0.404570E+00   0.382074E+01   0.000000E+00
     1     5    55  -0.149994E+01  -0.315330E+00   0.327893E+01   0.000000E+00
 
 
 SOLVING FOR HEAD 
                                                   Max.-Head-Change                         Max.-Flux-Residual
  Residual-Control   Outer-Iter.   Inner-Iter.     Column Row Layer    Maximum-Head-Change  Column Row Layer    Maximum-Flux-Residual          L2-NORM 
          0                 1           2            50    1     1      -0.1245591165E-01      50    1    1        -0.1176002636E-02      0.1919015520E-01
          0                 2           2            50    1     1       0.1231413729E-02      50    1    1         0.1175526882E-03      0.1865338377E-02
          0                 3           2            50    1     1      -0.1097487545E-03      50    1    1        -0.1058022952E-04      0.1723144580E-03
          0                 4           1            50    1     1       0.8709175121E-05      50    1    1         0.8474726822E-06      0.1438182625E-04
          0                 5           1            50    1     1      -0.6065483156E-06       1    4    1         0.7339889407E-07      0.1050893346E-05

    ------------------------------------------------
       NWT REQUIRED            5 OUTER ITERATIONS 
       AND A TOTAL OF          8 INNER ITERATIONS.
    ------------------------------------------------

 NO OUTPUT CONTROL FOR STRESS PERIOD   33   TIME STEP   10
 
 WELLS WITH REDUCED PUMPING FOR STRESS PERIOD    33 TIME STEP    10
   LAY   ROW   COL         APPL.Q          ACT.Q        GW-HEAD       CELL-BOT
     1     3    50  -0.149987E+01  -0.403919E+00   0.381723E+01   0.000000E+00
     1     5    55  -0.149987E+01  -0.314804E+00   0.327589E+01   0.000000E+00
 
 
 SOLVING FOR HEAD 
                                                   Max.-Head-Change                         Max.-Flux-Residual
  Residual-Control   Outer-Iter.   Inner-Iter.     Column Row Layer    Maximum-Head-Change  Column Row Layer    Maximum-Flux-Residual          L2-NORM 
          0                 1           2             1    1     1      -0.1319662511E-01      50    1    1        -0.1097409176E-02      0.1913829958E-01
          0                 2           2            50    1     1       0.1251014978E-02      50    1    1         0.1096834976E-03      0.1860442802E-02
          0                 3           2            50    1     1      -0.1114751242E-03      50    1    1        -0.9872099916E-05      0.1720524006E-03
          0                 4           1            50    1     1       0.8845367242E-05       1    4    1        -0.8116665384E-06      0.1439909985E-04
          0                 5           1            50    1     1      -0.6159593839E-06       1    4    1         0.7561055071E-07      0.1055747748E-05

    ------------------------------------------------
       NWT REQUIRED            5 OUTER ITERATIONS 
       AND A TOTAL OF          8 INNER ITERATIONS.
    ------------------------------------------------

 NO OUTPUT CONTROL FOR STRESS PERIOD   33   TIME STEP   11
 
 WELLS WITH REDUCED PUMPING FOR STRESS PERIOD    33 TIME STEP    11
   LAY   ROW   COL         APPL.Q          ACT.Q        GW-HEAD       CELL-BOT
     1     3    50  -0.150005E+01  -0.403331E+00   0.381371E+01   0.000000E+00
     1     5    55  -0.150005E+01  -0.314327E+00   0.327285E+01   0.000000E+00
 
 
 SOLVING FOR HEAD 
                                                   Max.-Head-Change                         Max.-Flux-Residual
  Residual-Control   Outer-Iter.   Inner-Iter.     Column Row Layer    Maximum-Head-Change  Column Row Layer    Maximum-Flux-Residual          L2-NORM 
          0                 1           2             1    1     1      -0.1450885126E-01       1    1    1        -0.1061340325E-02      0.1909095594E-01
          0                 2           2             1    1     1       0.1366126160E-02       1    1    1         0.1061331772E-03      0.1855885477E-02
          0                 3           2             1    1     1      -0.1165114670E-03       1    1    1        -0.9552076879E-05      0.1718192833E-03
          0                 4           1            50    1     1       0.8923307692E-05       1    4    1        -0.8288850317E-06      0.1441891840E-04
          0                 5           1            50    1     1      -0.6212791491E-06       1    4    1         0.7774512056E-07      0.1060839149E-05

    ------------------------------------------------
       NWT REQUIRED            5 OUTER ITERATIONS 
       AND A TOTAL OF          8 INNER ITERATIONS.
    ------------------------------------------------

 NO OUTPUT CONTROL FOR STRESS PERIOD   33   TIME STEP   12
 
 WELLS WITH REDUCED PUMPING FOR STRESS PERIOD    33 TIME STEP    12
   LAY   ROW   COL         APPL.Q          ACT.Q        GW-HEAD       CELL-BOT
     1     3    50  -0.150008E+01  -0.402729E+00   0.381033E+01   0.000000E+00
     1     5    55  -0.150008E+01  -0.313838E+00   0.326991E+01   0.000000E+00
 
 
 SOLVING FOR HEAD 
                                                   Max.-Head-Change                         Max.-Flux-Residual
  Residual-Control   Outer-Iter.   Inner-Iter.     Column Row Layer    Maximum-Head-Change  Column Row Layer    Maximum-Flux-Residual          L2-NORM 
          0                 1           2             1    1     1      -0.1595111697E-01       1    1    1        -0.1061079001E-02      0.1904595216E-01
          0                 2           2             1    1     1       0.1497356172E-02       1    1    1         0.1061069040E-03      0.1851731585E-02
          0                 3           2             1    1     1      -0.1272647290E-03       1    1    1        -0.9549726695E-05      0.1716656027E-03
          0                 4           1             1    1     1       0.9688552022E-05       1    4    1        -0.8452948563E-06      0.1444830167E-04
          0                 5           1             1    1     1      -0.6513926866E-06       1    4    1         0.7979698324E-07      0.1066740261E-05

    ------------------------------------------------
       NWT REQUIRED            5 OUTER ITERATIONS 
       AND A TOTAL OF          8 INNER ITERATIONS.
    ------------------------------------------------

 NO OUTPUT CONTROL FOR STRESS PERIOD   33   TIME STEP   13
 
 WELLS WITH REDUCED PUMPING FOR STRESS PERIOD    33 TIME STEP    13
   LAY   ROW   COL         APPL.Q          ACT.Q        GW-HEAD       CELL-BOT
     1     3    50  -0.150008E+01  -0.402131E+00   0.380702E+01   0.000000E+00
     1     5    55  -0.150008E+01  -0.313348E+00   0.326701E+01   0.000000E+00
 
 
 SOLVING FOR HEAD 
                                                   Max.-Head-Change                         Max.-Flux-Residual
  Residual-Control   Outer-Iter.   Inner-Iter.     Column Row Layer    Maximum-Head-Change  Column Row Layer    Maximum-Flux-Residual          L2-NORM 
          0                 1           2             1    1     1      -0.1753623486E-01       1    1    1        -0.1060784893E-02      0.1900232674E-01
          0                 2           2             1    1     1       0.1641207963E-02       1    1    1         0.1060773335E-03      0.1847524438E-02
          0                 3           2             1    1     1      -0.1390090948E-03       1    1    1        -0.9547081643E-05      0.1714573183E-03
          0                 4           1             1    1     1       0.1054250549E-04       1    4    1        -0.8608844553E-06      0.1446972393E-04
          0                 5           1             1    1     1      -0.7058411356E-06       2    4    1         0.8177347866E-07      0.1071929153E-05

    ------------------------------------------------
       NWT REQUIRED            5 OUTER ITERATIONS 
       AND A TOTAL OF          8 INNER ITERATIONS.
    ------------------------------------------------

 NO OUTPUT CONTROL FOR STRESS PERIOD   33   TIME STEP   14
 
 WELLS WITH REDUCED PUMPING FOR STRESS PERIOD    33 TIME STEP    14
   LAY   ROW   COL         APPL.Q          ACT.Q        GW-HEAD       CELL-BOT
     1     3    50  -0.150003E+01  -0.401525E+00   0.380372E+01   0.000000E+00
     1     5    55  -0.150003E+01  -0.312850E+00   0.326410E+01   0.000000E+00
 
 
 SOLVING FOR HEAD 
                                                   Max.-Head-Change                         Max.-Flux-Residual
  Residual-Control   Outer-Iter.   Inner-Iter.     Column Row Layer    Maximum-Head-Change  Column Row Layer    Maximum-Flux-Residual          L2-NORM 
          0                 1           2             1    1     1      -0.1927826144E-01       1    1    1        -0.1060454766E-02      0.1896130002E-01
          0                 2           2             1    1     1       0.1798920536E-02       1    1    1         0.1060441402E-03      0.1843370114E-02
          0                 3           2             1    1     1      -0.1518409792E-03       1    1    1        -0.9544112551E-05      0.1712421373E-03
          0                 4           1             1    1     1       0.1147109228E-04       1    4    1        -0.8756472099E-06      0.1449037574E-04
          0                 5           1             1    1     1      -0.7645832893E-06       2    4    1         0.8366246362E-07      0.1077018966E-05

    ------------------------------------------------
       NWT REQUIRED            5 OUTER ITERATIONS 
       AND A TOTAL OF          8 INNER ITERATIONS.
    ------------------------------------------------

 NO OUTPUT CONTROL FOR STRESS PERIOD   33   TIME STEP   15
 
 WELLS WITH REDUCED PUMPING FOR STRESS PERIOD    33 TIME STEP    15
   LAY   ROW   COL         APPL.Q          ACT.Q        GW-HEAD       CELL-BOT
     1     3    50  -0.150003E+01  -0.400914E+00   0.380033E+01   0.000000E+00
     1     5    55  -0.150003E+01  -0.312346E+00   0.326110E+01   0.000000E+00
 
 
 SOLVING FOR HEAD 
                                                   Max.-Head-Change                         Max.-Flux-Residual
  Residual-Control   Outer-Iter.   Inner-Iter.     Column Row Layer    Maximum-Head-Change  Column Row Layer    Maximum-Flux-Residual          L2-NORM 
          0                 1           2             1    1     1      -0.2119261307E-01       1    1    1        -0.1060085102E-02      0.1891801475E-01
          0                 2           2             1    1     1       0.1971855288E-02       1    1    1         0.1060069702E-03      0.1839449049E-02
          0                 3           2             1    1     1      -0.1658666453E-03       1    1    1        -0.9540787818E-05      0.1711010137E-03
          0                 4           1             1    1     1       0.1248144496E-04       1    4    1        -0.8895812300E-06      0.1452000022E-04
          0                 5           1             1    1     1      -0.8279602264E-06       2    4    1         0.8546101427E-07      0.1082751396E-05

    ------------------------------------------------
       NWT REQUIRED            5 OUTER ITERATIONS 
       AND A TOTAL OF          8 INNER ITERATIONS.
    ------------------------------------------------

 NO OUTPUT CONTROL FOR STRESS PERIOD   33   TIME STEP   16
 
 WELLS WITH REDUCED PUMPING FOR STRESS PERIOD    33 TIME STEP    16
   LAY   ROW   COL         APPL.Q          ACT.Q        GW-HEAD       CELL-BOT
     1     3    50  -0.150003E+01  -0.400285E+00   0.379684E+01   0.000000E+00
     1     5    55  -0.150003E+01  -0.311823E+00   0.325799E+01   0.000000E+00
 
 
 SOLVING FOR HEAD 
                                                   Max.-Head-Change                         Max.-Flux-Residual
  Residual-Control   Outer-Iter.   Inner-Iter.     Column Row Layer    Maximum-Head-Change  Column Row Layer    Maximum-Flux-Residual          L2-NORM 
          0                 1           2             1    1     1      -0.2329619234E-01       1    1    1        -0.1059672038E-02      0.1887468948E-01
          0                 2           2             1    1     1       0.2161507281E-02       1    1    1         0.1059654347E-03      0.1835063421E-02
          0                 3           2             1    1     1      -0.1812031074E-03       1    1    1        -0.9537072643E-05      0.1708487650E-03
          0                 4           1             1    1     1       0.1358142593E-04       1    4    1        -0.9026890346E-06      0.1453566909E-04
          0                 5           1             1    1     1      -0.8963226267E-06       2    4    1         0.8716697764E-07      0.1087130703E-05

    ------------------------------------------------
       NWT REQUIRED            5 OUTER ITERATIONS 
       AND A TOTAL OF          8 INNER ITERATIONS.
    ------------------------------------------------

 NO OUTPUT CONTROL FOR STRESS PERIOD   33   TIME STEP   17
 
 WELLS WITH REDUCED PUMPING FOR STRESS PERIOD    33 TIME STEP    17
   LAY   ROW   COL         APPL.Q          ACT.Q        GW-HEAD       CELL-BOT
     1     3    50  -0.150006E+01  -0.399637E+00   0.379319E+01   0.000000E+00
     1     5    55  -0.150006E+01  -0.311281E+00   0.325473E+01   0.000000E+00
 
 
 SOLVING FOR HEAD 
                                                   Max.-Head-Change                         Max.-Flux-Residual
  Residual-Control   Outer-Iter.   Inner-Iter.     Column Row Layer    Maximum-Head-Change  Column Row Layer    Maximum-Flux-Residual          L2-NORM 
          0                 1           2             1    1     1      -0.2560752041E-01       1    1    1        -0.1059211308E-02      0.1883019159E-01
          0                 2           2             1    1     1       0.2369516959E-02       1    1    1         0.1059191044E-03      0.1830779059E-02
          0                 3           2             1    1     1      -0.1979790626E-03       1    1    1        -0.9532928640E-05      0.1706494713E-03
          0                 4           1             1    1     1       0.1477968247E-04       1    4    1        -0.9149771500E-06      0.1455893817E-04
          0                 5           1             1    1     1      -0.9700238374E-06       2    4    1         0.8877883673E-07      0.1091983663E-05

    ------------------------------------------------
       NWT REQUIRED            5 OUTER ITERATIONS 
       AND A TOTAL OF          8 INNER ITERATIONS.
    ------------------------------------------------

 NO OUTPUT CONTROL FOR STRESS PERIOD   33   TIME STEP   18
 
 WELLS WITH REDUCED PUMPING FOR STRESS PERIOD    33 TIME STEP    18
   LAY   ROW   COL         APPL.Q          ACT.Q        GW-HEAD       CELL-BOT
     1     3    50  -0.150005E+01  -0.398959E+00   0.378944E+01   0.000000E+00
     1     5    55  -0.150005E+01  -0.310711E+00   0.325136E+01   0.000000E+00
 
 
 SOLVING FOR HEAD 
                                                   Max.-Head-Change                         Max.-Flux-Residual
  Residual-Control   Outer-Iter.   Inner-Iter.     Column Row Layer    Maximum-Head-Change  Column Row Layer    Maximum-Flux-Residual          L2-NORM 
          0                 1           2             1    1     1      -0.2814688561E-01       1    1    1        -0.1058698194E-02      0.1878361730E-01
          0                 2           2             1    1     1       0.2597683218E-02       1    1    1         0.1058675047E-03      0.1826283912E-02
          0                 3           2             1    1     1      -0.2163359189E-03       1    1    1        -0.9528313324E-05      0.1703819626E-03
          0                 4           1             1    1     1       0.1608569182E-04       1    4    1        -0.9264558969E-06      0.1457139269E-04
          0                 5           1             1    1     1      -0.1049393588E-05       2    4    1         0.9029559322E-07      0.1095477214E-05
          0                 6           1             1    1     1       0.5937160514E-07       2    4    1        -0.6762171267E-08      0.7055029809E-07

    ------------------------------------------------
       NWT REQUIRED            6 OUTER ITERATIONS 
       AND A TOTAL OF          9 INNER ITERATIONS.
    ------------------------------------------------

 NO OUTPUT CONTROL FOR STRESS PERIOD   33   TIME STEP   19
 
 WELLS WITH REDUCED PUMPING FOR STRESS PERIOD    33 TIME STEP    19
   LAY   ROW   COL         APPL.Q          ACT.Q        GW-HEAD       CELL-BOT
     1     3    50  -0.149997E+01  -0.398249E+00   0.378562E+01   0.000000E+00
     1     5    55  -0.149997E+01  -0.310111E+00   0.324788E+01   0.000000E+00
 
 
 SOLVING FOR HEAD 
                                                   Max.-Head-Change                         Max.-Flux-Residual
  Residual-Control   Outer-Iter.   Inner-Iter.     Column Row Layer    Maximum-Head-Change  Column Row Layer    Maximum-Flux-Residual          L2-NORM 
          0                 1           2             1    1     1      -0.3093651164E-01       1    7    1        -0.1058128468E-02      0.1873937519E-01
          0                 2           2             1    1     1       0.2847978364E-02       1    7    1         0.1058102090E-03      0.1821745088E-02
          0                 3           2             1    1     1      -0.2364289851E-03       1    7    1        -0.9523188611E-05      0.1701211950E-03
          0                 4           1             1    1     1       0.1750982585E-04       1    4    1        -0.9371433585E-06      0.1458593105E-04
          0                 5           1             1    1     1      -0.1134722814E-05       2    4    1         0.9171707660E-07      0.1098838190E-05
          0                 6           1             1    1     1       0.6375004201E-07       2    4    1        -0.6892566518E-08      0.7094068492E-07

    ------------------------------------------------
       NWT REQUIRED            6 OUTER ITERATIONS 
       AND A TOTAL OF          9 INNER ITERATIONS.
    ------------------------------------------------

 NO OUTPUT CONTROL FOR STRESS PERIOD   33   TIME STEP   20
 
 WELLS WITH REDUCED PUMPING FOR STRESS PERIOD    33 TIME STEP    20
   LAY   ROW   COL         APPL.Q          ACT.Q        GW-HEAD       CELL-BOT
     1     3    50  -0.149995E+01  -0.397515E+00   0.378155E+01   0.000000E+00
     1     5    55  -0.149995E+01  -0.309487E+00   0.324418E+01   0.000000E+00
 
 
 SOLVING FOR HEAD 
                                                   Max.-Head-Change                         Max.-Flux-Residual
  Residual-Control   Outer-Iter.   Inner-Iter.     Column Row Layer    Maximum-Head-Change  Column Row Layer    Maximum-Flux-Residual          L2-NORM 
          0                 1           2             1    1     1      -0.3400069135E-01       1    7    1        -0.1057494758E-02      0.1871559314E-01
          0                 2           2             1    1     1       0.3122558425E-02       1    7    1         0.1057464769E-03      0.1817768932E-02
          0                 3           2             1    1     1      -0.2584281460E-03       1    7    1        -0.9517488153E-05      0.1697688324E-03
          0                 4           1             1    1     1       0.1906333716E-04       1    4    1        -0.9470482425E-06      0.1458433963E-04
          0                 5           1             1    1     1      -0.1226208972E-05       2    4    1         0.9304260473E-07      0.1100202578E-05
          0                 6           1             1    1     1       0.6834985237E-07       2    4    1        -0.7012552317E-08      0.7116993622E-07

    ------------------------------------------------
       NWT REQUIRED            6 OUTER ITERATIONS 
       AND A TOTAL OF          9 INNER ITERATIONS.
    ------------------------------------------------

 NO OUTPUT CONTROL FOR STRESS PERIOD   33   TIME STEP   21
 
 WELLS WITH REDUCED PUMPING FOR STRESS PERIOD    33 TIME STEP    21
   LAY   ROW   COL         APPL.Q          ACT.Q        GW-HEAD       CELL-BOT
     1     3    50  -0.150000E+01  -0.396749E+00   0.377722E+01   0.000000E+00
     1     5    55  -0.150000E+01  -0.308831E+00   0.324021E+01   0.000000E+00
 
 
 SOLVING FOR HEAD 
                                                   Max.-Head-Change                         Max.-Flux-Residual
  Residual-Control   Outer-Iter.   Inner-Iter.     Column Row Layer    Maximum-Head-Change  Column Row Layer    Maximum-Flux-Residual          L2-NORM 
          0                 1           2             6    4     1      -0.3796336780E-01       1    7    1        -0.1056791059E-02      0.1876927366E-01
          0                 2           2             4    1     1       0.3465995798E-02       1    7    1         0.1056792811E-03      0.1814824811E-02
          0                 3           2             4    1     1      -0.2866320236E-03       1    7    1        -0.9511444253E-05      0.1689352046E-03
          0                 4           1             4    1     1       0.2109255691E-04       1    4    1        -0.8957050959E-06      0.1451090791E-04
          0                 5           1             4    1     1      -0.1344895495E-05       1    4    1         0.8970267373E-07      0.1094541049E-05
          0                 6           1             1    1     1       0.7413150629E-07       1    4    1        -0.6813319686E-08      0.7090888284E-07

    ------------------------------------------------
       NWT REQUIRED            6 OUTER ITERATIONS 
       AND A TOTAL OF          9 INNER ITERATIONS.
    ------------------------------------------------

 NO OUTPUT CONTROL FOR STRESS PERIOD   33   TIME STEP   22
 
 WELLS WITH REDUCED PUMPING FOR STRESS PERIOD    33 TIME STEP    22
   LAY   ROW   COL         APPL.Q          ACT.Q        GW-HEAD       CELL-BOT
     1     3    50  -0.149999E+01  -0.395938E+00   0.377272E+01   0.000000E+00
     1     5    55  -0.149999E+01  -0.308134E+00   0.323606E+01   0.000000E+00
 
 
 SOLVING FOR HEAD 
                                                   Max.-Head-Change                         Max.-Flux-Residual
  Residual-Control   Outer-Iter.   Inner-Iter.     Column Row Layer    Maximum-Head-Change  Column Row Layer    Maximum-Flux-Residual          L2-NORM 
          0                 1           2             1    4     1      -0.4383885739E-01       5    5    1        -0.1073417878E-02      0.1904794924E-01
          0                 2           2             4    1     1       0.3926214697E-02       5    3    1         0.1073589831E-03      0.1823966684E-02
          0                 3           2             4    1     1      -0.3240109163E-03       5    5    1        -0.9662695682E-05      0.1684478062E-03
          0                 4           1             4    1     1       0.2375749527E-04      23    4    1        -0.8316825202E-06      0.1442990369E-04
          0                 5           1             4    1     1      -0.1499583967E-05       7    4    1         0.8363871729E-07      0.1086499703E-05
          0                 6           1             1    1     1       0.8168092216E-07       4    4    1        -0.6581753809E-08      0.7045372866E-07

    ------------------------------------------------
       NWT REQUIRED            6 OUTER ITERATIONS 
       AND A TOTAL OF          9 INNER ITERATIONS.
    ------------------------------------------------

 NO OUTPUT CONTROL FOR STRESS PERIOD   33   TIME STEP   23
 
 WELLS WITH REDUCED PUMPING FOR STRESS PERIOD    33 TIME STEP    23
   LAY   ROW   COL         APPL.Q          ACT.Q        GW-HEAD       CELL-BOT
     1     3    50  -0.150003E+01  -0.395090E+00   0.376794E+01   0.000000E+00
     1     5    55  -0.150003E+01  -0.307401E+00   0.323164E+01   0.000000E+00
 
 
 SOLVING FOR HEAD 
                                                   Max.-Head-Change                         Max.-Flux-Residual
  Residual-Control   Outer-Iter.   Inner-Iter.     Column Row Layer    Maximum-Head-Change  Column Row Layer    Maximum-Flux-Residual          L2-NORM 
          0                 1           2             1    4     1      -0.4956609777E-01       4    3    1        -0.1116996825E-02      0.1943983016E-01
          0                 2           2             1    1     1       0.4455527775E-02       4    3    1         0.1117269196E-03      0.1855787236E-02
          0                 3           2             1    1     1      -0.3673982875E-03       4    3    1        -0.1005737539E-04      0.1707975189E-03
          0                 4           1             1    1     1       0.2688314142E-04      33    4    1        -0.8180007196E-06      0.1461675331E-04
          0                 5           1             1    1     1      -0.1680908524E-05       7    4    1         0.8686840758E-07      0.1097679427E-05
          0                 6           1             1    1     1       0.9062505679E-07       4    4    1        -0.6817252540E-08      0.7113312888E-07

    ------------------------------------------------
       NWT REQUIRED            6 OUTER ITERATIONS 
       AND A TOTAL OF          9 INNER ITERATIONS.
    ------------------------------------------------

 NO OUTPUT CONTROL FOR STRESS PERIOD   33   TIME STEP   24
 
 WELLS WITH REDUCED PUMPING FOR STRESS PERIOD    33 TIME STEP    24
   LAY   ROW   COL         APPL.Q          ACT.Q        GW-HEAD       CELL-BOT
     1     3    50  -0.149999E+01  -0.394192E+00   0.376298E+01   0.000000E+00
     1     5    55  -0.149999E+01  -0.306621E+00   0.322702E+01   0.000000E+00
 
 
 SOLVING FOR HEAD 
                                                   Max.-Head-Change                         Max.-Flux-Residual
  Residual-Control   Outer-Iter.   Inner-Iter.     Column Row Layer    Maximum-Head-Change  Column Row Layer    Maximum-Flux-Residual          L2-NORM 
          0                 1           3             1    4     1      -0.5557942351E-01       1    5    1        -0.1150766324E-02      0.1987665636E-01
          0                 2           2             1    1     1       0.5033805817E-02       1    5    1         0.1150866776E-03      0.1895849213E-02
          0                 3           2             5    1     1      -0.4156050081E-03       1    5    1        -0.1035838314E-04      0.1739614313E-03
          0                 4           1             5    1     1       0.3040342349E-04       1    3    1         0.8296990508E-06      0.1486052723E-04
          0                 5           1             4    1     1      -0.1878099365E-05       4    4    1         0.8836908094E-07      0.1110708149E-05
          0                 6           1             1    1     1       0.9996728137E-07       4    4    1        -0.6998700286E-08      0.7180341534E-07

    ------------------------------------------------
       NWT REQUIRED            6 OUTER ITERATIONS 
       AND A TOTAL OF         10 INNER ITERATIONS.
    ------------------------------------------------

 NO OUTPUT CONTROL FOR STRESS PERIOD   33   TIME STEP   25
 
 WELLS WITH REDUCED PUMPING FOR STRESS PERIOD    33 TIME STEP    25
   LAY   ROW   COL         APPL.Q          ACT.Q        GW-HEAD       CELL-BOT
     1     3    50  -0.150002E+01  -0.393251E+00   0.375770E+01   0.000000E+00
     1     5    55  -0.150002E+01  -0.305801E+00   0.322208E+01   0.000000E+00
 
 
 SOLVING FOR HEAD 
                                                   Max.-Head-Change                         Max.-Flux-Residual
  Residual-Control   Outer-Iter.   Inner-Iter.     Column Row Layer    Maximum-Head-Change  Column Row Layer    Maximum-Flux-Residual          L2-NORM 
          0                 1           3             1    4     1      -0.6233958143E-01       1    5    1        -0.1176338621E-02      0.2032358792E-01
          0                 2           2             1    1     1       0.5667888542E-02       1    5    1         0.1176442742E-03      0.1938706951E-02
          0                 3           2             1    1     1      -0.4674924138E-03       1    5    1        -0.1058863863E-04      0.1775233394E-03
          0                 4           1             1    1     1       0.3412250223E-04       1    3    1         0.8481414255E-06      0.1514009549E-04
          0                 5           1             1    1     1      -0.2082609972E-05       9    4    1         0.8998626200E-07      0.1124731479E-05
          0                 6           1             1    1     1       0.1091598526E-06       9    4    1        -0.7071495389E-08      0.7244612836E-07

    ------------------------------------------------
       NWT REQUIRED            6 OUTER ITERATIONS 
       AND A TOTAL OF         10 INNER ITERATIONS.
    ------------------------------------------------

 NO OUTPUT CONTROL FOR STRESS PERIOD   33   TIME STEP   26
 
 WELLS WITH REDUCED PUMPING FOR STRESS PERIOD    33 TIME STEP    26
   LAY   ROW   COL         APPL.Q          ACT.Q        GW-HEAD       CELL-BOT
     1     3    50  -0.150001E+01  -0.392257E+00   0.375216E+01   0.000000E+00
     1     5    55  -0.150001E+01  -0.304929E+00   0.321687E+01   0.000000E+00
 
 
 SOLVING FOR HEAD 
                                                   Max.-Head-Change                         Max.-Flux-Residual
  Residual-Control   Outer-Iter.   Inner-Iter.     Column Row Layer    Maximum-Head-Change  Column Row Layer    Maximum-Flux-Residual          L2-NORM 
          0                 1           3             1    4     1      -0.6969138951E-01       1    5    1        -0.1200543897E-02      0.2075701986E-01
          0                 2           2             1    1     1       0.6362512943E-02       1    5    1         0.1200633610E-03      0.1981880815E-02
          0                 3           2             1    1     1      -0.5251346767E-03       1    5    1        -0.1080644370E-04      0.1812046506E-03
          0                 4           1             1    1     1       0.3829574577E-04       1    5    1         0.8655863901E-06      0.1543090770E-04
          0                 5           1             1    1     1      -0.2299098505E-05       9    4    1         0.9102124565E-07      0.1137249066E-05
          0                 6           1             1    1     1       0.1182506236E-06       9    4    1        -0.7137185065E-08      0.7288183374E-07

    ------------------------------------------------
       NWT REQUIRED            6 OUTER ITERATIONS 
       AND A TOTAL OF         10 INNER ITERATIONS.
    ------------------------------------------------

 NO OUTPUT CONTROL FOR STRESS PERIOD   33   TIME STEP   27
 
 WELLS WITH REDUCED PUMPING FOR STRESS PERIOD    33 TIME STEP    27
   LAY   ROW   COL         APPL.Q          ACT.Q        GW-HEAD       CELL-BOT
     1     3    50  -0.150000E+01  -0.391209E+00   0.374631E+01   0.000000E+00
     1     5    55  -0.150000E+01  -0.304008E+00   0.321135E+01   0.000000E+00
 
 
 SOLVING FOR HEAD 
                                                   Max.-Head-Change                         Max.-Flux-Residual
  Residual-Control   Outer-Iter.   Inner-Iter.     Column Row Layer    Maximum-Head-Change  Column Row Layer    Maximum-Flux-Residual          L2-NORM 
          0                 1           3             1    1     1      -0.7638264290E-01       1    5    1        -0.1221226444E-02      0.2107494006E-01
          0                 2           2             1    1     1       0.7024822031E-02       1    5    1         0.1221129104E-03      0.2021362173E-02
          0                 3           2             1    1     1      -0.5792678046E-03       1    5    1        -0.1099112094E-04      0.1853117485E-03
          0                 4           1             1    1     1       0.4213754855E-04       6    4    1        -0.9023938503E-06      0.1580647265E-04
          0                 5           1             1    1     1      -0.2473372196E-05       9    4    1         0.9844301374E-07      0.1155555219E-05
          0                 6           1             1    1     1       0.1243373345E-06       9    4    1        -0.7522803713E-08      0.7365446514E-07

    ------------------------------------------------
       NWT REQUIRED            6 OUTER ITERATIONS 
       AND A TOTAL OF         10 INNER ITERATIONS.
    ------------------------------------------------

 NO OUTPUT CONTROL FOR STRESS PERIOD   33   TIME STEP   28
 
 WELLS WITH REDUCED PUMPING FOR STRESS PERIOD    33 TIME STEP    28
   LAY   ROW   COL         APPL.Q          ACT.Q        GW-HEAD       CELL-BOT
     1     3    50  -0.149997E+01  -0.390103E+00   0.374017E+01   0.000000E+00
     1     5    55  -0.149997E+01  -0.303032E+00   0.320553E+01   0.000000E+00
 
 
 SOLVING FOR HEAD 
                                                   Max.-Head-Change                         Max.-Flux-Residual
  Residual-Control   Outer-Iter.   Inner-Iter.     Column Row Layer    Maximum-Head-Change  Column Row Layer    Maximum-Flux-Residual          L2-NORM 
          0                 1           3             1    1     1      -0.8393077170E-01       1    5    1        -0.1220218981E-02      0.2129223787E-01
          0                 2           2             1    1     1       0.7710834856E-02       1    5    1         0.1220093414E-03      0.2047341462E-02
          0                 3           2             1    1     1      -0.6348504281E-03       1    5    1        -0.1098190057E-04      0.1879754848E-03
          0                 4           1             1    1     1       0.4601834636E-04       1    4    1        -0.9172373403E-06      0.1605455652E-04
          0                 5           1             1    1     1      -0.2622267497E-05       9    4    1         0.1006309347E-06      0.1162642050E-05
          0                 6           1             1    1     1       0.1279819918E-06       9    4    1        -0.7608402797E-08      0.7372940539E-07

    ------------------------------------------------
       NWT REQUIRED            6 OUTER ITERATIONS 
       AND A TOTAL OF         10 INNER ITERATIONS.
    ------------------------------------------------

 NO OUTPUT CONTROL FOR STRESS PERIOD   33   TIME STEP   29
 
 WELLS WITH REDUCED PUMPING FOR STRESS PERIOD    33 TIME STEP    29
   LAY   ROW   COL         APPL.Q          ACT.Q        GW-HEAD       CELL-BOT
     1     3    50  -0.150002E+01  -0.388936E+00   0.373357E+01   0.000000E+00
     1     5    55  -0.150002E+01  -0.302002E+00   0.319929E+01   0.000000E+00
 
 
 SOLVING FOR HEAD 
                                                   Max.-Head-Change                         Max.-Flux-Residual
  Residual-Control   Outer-Iter.   Inner-Iter.     Column Row Layer    Maximum-Head-Change  Column Row Layer    Maximum-Flux-Residual          L2-NORM 
          0                 1           3             1    1     1      -0.9215034286E-01       1    5    1        -0.1217093708E-02      0.2143718944E-01
          0                 2           2             1    1     1       0.8456393825E-02       1    5    1         0.1216965911E-03      0.2064957279E-02
          0                 3           2             1    1     1      -0.6950599628E-03       1    5    1        -0.1095384578E-04      0.1897812059E-03
          0                 4           1             1    1     1       0.5017974961E-04      28    4    1        -0.9377929118E-06      0.1622356490E-04
          0                 5           1             1    1     1      -0.2753597509E-05       9    4    1         0.1028963688E-06      0.1161015068E-05
          0                 6           1             1    1     1       0.1295812518E-06       9    4    1        -0.7676565161E-08      0.7324381058E-07

    ------------------------------------------------
       NWT REQUIRED            6 OUTER ITERATIONS 
       AND A TOTAL OF         10 INNER ITERATIONS.
    ------------------------------------------------

 NO OUTPUT CONTROL FOR STRESS PERIOD   33   TIME STEP   30
 
 WELLS WITH REDUCED PUMPING FOR STRESS PERIOD    33 TIME STEP    30
   LAY   ROW   COL         APPL.Q          ACT.Q        GW-HEAD       CELL-BOT
     1     3    50  -0.149999E+01  -0.387665E+00   0.372649E+01   0.000000E+00
     1     5    55  -0.149999E+01  -0.300882E+00   0.319258E+01   0.000000E+00
 



 STREAM LISTING     PERIOD     33   STEP       30

 LAYER ROW COL. STREAM  RCH.   FLOW INTO    STREAM     FLOW OUT OF   OVRLND.    DIRECT     STREAM      STREAM      STREAM     STREAM  STREAMBED   FLOW TO   CHNG. UNSAT. 
                SEG.NO.  NO.   STRM. RCH.    LOSS       STRM. RCH.   RUNOFF     PRECIP       ET         HEAD        DEPTH      WIDTH  CONDCTNC.   WAT. TAB.

   1    4    1     1     1    2.0700E+00  9.1316E-04   2.0691E+00  0.000E+00  0.000E+00  0.000E+00  1.40918E+02  1.068E+00  3.091E+00  5.822E-04  9.100E-04  3.274E-06
   1    4    2     1     2    2.0691E+00  9.1289E-04   2.0682E+00  0.000E+00  0.000E+00  0.000E+00  1.40618E+02  1.068E+00  3.090E+00  5.822E-04  9.097E-04  3.334E-06
   1    4    3     1     3    2.0682E+00  9.1263E-04   2.0673E+00  0.000E+00  0.000E+00  0.000E+00  1.40318E+02  1.068E+00  3.090E+00  5.821E-04  9.094E-04  3.373E-06
   1    4    4     1     4    2.0673E+00  9.1236E-04   2.0663E+00  0.000E+00  0.000E+00  0.000E+00  1.40018E+02  1.068E+00  3.090E+00  5.820E-04  9.091E-04  3.394E-06
   1    4    5     1     5    2.0663E+00  9.1210E-04   2.0654E+00  0.000E+00  0.000E+00  0.000E+00  1.39717E+02  1.067E+00  3.090E+00  5.819E-04  9.088E-04  3.398E-06
   1    4    6     1     6    2.0654E+00  9.1183E-04   2.0645E+00  0.000E+00  0.000E+00  0.000E+00  1.39417E+02  1.067E+00  3.089E+00  5.819E-04  9.086E-04  3.386E-06
   1    4    7     1     7    2.0645E+00  9.1157E-04   2.0636E+00  0.000E+00  0.000E+00  0.000E+00  1.39117E+02  1.067E+00  3.089E+00  5.818E-04  9.083E-04  3.360E-06
   1    4    8     1     8    2.0636E+00  9.1130E-04   2.0627E+00  0.000E+00  0.000E+00  0.000E+00  1.38817E+02  1.067E+00  3.089E+00  5.817E-04  9.081E-04  3.321E-06
   1    4    9     1     9    2.0627E+00  9.1104E-04   2.0618E+00  0.000E+00  0.000E+00  0.000E+00  1.38516E+02  1.066E+00  3.088E+00  5.816E-04  9.079E-04  3.263E-06
   1    4   10     1    10    2.0618E+00  9.1078E-04   2.0609E+00  0.000E+00  0.000E+00  0.000E+00  1.38216E+02  1.066E+00  3.088E+00  5.815E-04  9.077E-04  3.189E-06
   1    4   11     1    11    2.0609E+00  9.1051E-04   2.0600E+00  0.000E+00  0.000E+00  0.000E+00  1.37916E+02  1.066E+00  3.088E+00  5.815E-04  9.075E-04  3.097E-06
   1    4   12     1    12    2.0600E+00  9.1025E-04   2.0591E+00  0.000E+00  0.000E+00  0.000E+00  1.37616E+02  1.066E+00  3.088E+00  5.814E-04  9.074E-04  2.986E-06
   1    4   13     1    13    2.0591E+00  9.0998E-04   2.0581E+00  0.000E+00  0.000E+00  0.000E+00  1.37315E+02  1.065E+00  3.087E+00  5.813E-04  9.072E-04  2.855E-06
   1    4   14     1    14    2.0581E+00  9.0972E-04   2.0572E+00  0.000E+00  0.000E+00  0.000E+00  1.37015E+02  1.065E+00  3.087E+00  5.812E-04  9.071E-04  2.701E-06
   1    4   15     1    15    2.0572E+00  9.0945E-04   2.0563E+00  0.000E+00  0.000E+00  0.000E+00  1.36715E+02  1.065E+00  3.087E+00  5.811E-04  9.070E-04  2.525E-06
   1    4   16     1    16    2.0563E+00  9.0919E-04   2.0554E+00  0.000E+00  0.000E+00  0.000E+00  1.36415E+02  1.065E+00  3.086E+00  5.811E-04  9.070E-04  2.324E-06
   1    4   17     1    17    2.0554E+00  9.0892E-04   2.0545E+00  0.000E+00  0.000E+00  0.000E+00  1.36114E+02  1.064E+00  3.086E+00  5.810E-04  9.069E-04  2.095E-06
   1    4   18     1    18    2.0545E+00  9.0866E-04   2.0536E+00  0.000E+00  0.000E+00  0.000E+00  1.35814E+02  1.064E+00  3.086E+00  5.809E-04  9.069E-04  1.839E-06
   1    4   19     1    19    2.0536E+00  9.0840E-04   2.0527E+00  0.000E+00  0.000E+00  0.000E+00  1.35514E+02  1.064E+00  3.085E+00  5.808E-04  9.070E-04  1.552E-06
   1    4   20     1    20    2.0527E+00  9.0813E-04   2.0518E+00  0.000E+00  0.000E+00  0.000E+00  1.35214E+02  1.064E+00  3.085E+00  5.807E-04  9.070E-04  1.235E-06
   1    4   21     1    21    2.0518E+00  9.0787E-04   2.0509E+00  0.000E+00  0.000E+00  0.000E+00  1.34913E+02  1.063E+00  3.085E+00  5.807E-04  9.071E-04  8.836E-07
   1    4   22     1    22    2.0509E+00  9.0761E-04   2.0500E+00  0.000E+00  0.000E+00  0.000E+00  1.34613E+02  1.063E+00  3.085E+00  5.806E-04  9.072E-04  5.001E-07
   1    4   23     1    23    2.0500E+00  9.0734E-04   2.0491E+00  0.000E+00  0.000E+00  0.000E+00  1.34313E+02  1.063E+00  3.084E+00  5.805E-04  9.074E-04  8.910E-08
   1    4   24     1    24    2.0491E+00  9.0708E-04   2.0482E+00  0.000E+00  0.000E+00  0.000E+00  1.34013E+02  1.063E+00  3.084E+00  5.804E-04  9.075E-04 -3.510E-07
   1    4   25     1    25    2.0482E+00  9.0681E-04   2.0473E+00  0.000E+00  0.000E+00  0.000E+00  1.33713E+02  1.063E+00  3.084E+00  5.803E-04  9.078E-04 -8.273E-07
   1    4   26     1    26    2.0473E+00  9.0655E-04   2.0463E+00  0.000E+00  0.000E+00  0.000E+00  1.33412E+02  1.062E+00  3.083E+00  5.803E-04  9.080E-04 -1.308E-06
   1    4   27     1    27    2.0463E+00  9.0629E-04   2.0454E+00  0.000E+00  0.000E+00  0.000E+00  1.33112E+02  1.062E+00  3.083E+00  5.802E-04  9.125E-04 -6.069E-06
   1    4   28     1    28    2.0454E+00  9.0602E-04   2.0445E+00  0.000E+00  0.000E+00  0.000E+00  1.32812E+02  1.062E+00  3.083E+00  5.801E-04  9.323E-04 -2.619E-05
   1    4   29     1    29    2.0445E+00  9.0576E-04   2.0436E+00  0.000E+00  0.000E+00  0.000E+00  1.32512E+02  1.062E+00  3.083E+00  5.800E-04  8.732E-04  3.264E-05
   1    4   30     1    30    2.0436E+00  9.0550E-04   2.0427E+00  0.000E+00  0.000E+00  0.000E+00  1.32211E+02  1.061E+00  3.082E+00  5.800E-04  8.735E-04  3.208E-05
   1    4   31     1    31    2.0427E+00  9.0523E-04   2.0418E+00  0.000E+00  0.000E+00  0.000E+00  1.31911E+02  1.061E+00  3.082E+00  5.799E-04  8.739E-04  3.147E-05
   1    4   32     1    32    2.0418E+00  9.0497E-04   2.0409E+00  0.000E+00  0.000E+00  0.000E+00  1.31611E+02  1.061E+00  3.082E+00  5.798E-04  8.743E-04  3.081E-05
   1    4   33     1    33    2.0409E+00  9.0471E-04   2.0400E+00  0.000E+00  0.000E+00  0.000E+00  1.31311E+02  1.061E+00  3.081E+00  5.797E-04  8.747E-04  3.008E-05
   1    4   34     1    34    2.0400E+00  9.0444E-04   2.0391E+00  0.000E+00  0.000E+00  0.000E+00  1.31010E+02  1.060E+00  3.081E+00  5.796E-04  8.903E-04  1.421E-05
   1    4   35     1    35    2.0391E+00  9.0418E-04   2.0382E+00  0.000E+00  0.000E+00  0.000E+00  1.30710E+02  1.060E+00  3.081E+00  5.796E-04  9.455E-04 -4.125E-05
   1    4   36     1    36    2.0382E+00  9.0392E-04   2.0373E+00  0.000E+00  0.000E+00  0.000E+00  1.30410E+02  1.060E+00  3.081E+00  5.795E-04  9.851E-04 -8.111E-05
   1    4   37     1    37    2.0373E+00  9.0366E-04   2.0364E+00  0.000E+00  0.000E+00  0.000E+00  1.30110E+02  1.060E+00  3.080E+00  5.794E-04  1.027E-03 -1.235E-04
   1    4   38     1    38    2.0364E+00  9.0339E-04   2.0355E+00  0.000E+00  0.000E+00  0.000E+00  1.29809E+02  1.059E+00  3.080E+00  5.793E-04  1.061E-03 -1.571E-04
   1    4   39     1    39    2.0355E+00  9.0313E-04   2.0346E+00  0.000E+00  0.000E+00  0.000E+00  1.29509E+02  1.059E+00  3.080E+00  5.792E-04  1.104E-03 -2.006E-04
   1    4   40     1    40    2.0346E+00  9.0287E-04   2.0337E+00  0.000E+00  0.000E+00  0.000E+00  1.29209E+02  1.059E+00  3.079E+00  5.792E-04  1.150E-03 -2.472E-04
   1    4   41     1    41    2.0337E+00  9.0260E-04   2.0328E+00  0.000E+00  0.000E+00  0.000E+00  1.28909E+02  1.059E+00  3.079E+00  5.791E-04  1.200E-03 -2.971E-04
   1    4   42     1    42    2.0328E+00  9.0234E-04   2.0319E+00  0.000E+00  0.000E+00  0.000E+00  1.28608E+02  1.058E+00  3.079E+00  5.790E-04  1.291E-03 -3.888E-04
   1    4   43     1    43    2.0319E+00  9.0208E-04   2.0310E+00  0.000E+00  0.000E+00  0.000E+00  1.28308E+02  1.058E+00  3.079E+00  5.789E-04  1.343E-03 -4.409E-04
   1    4   44     1    44    2.0310E+00  9.0182E-04   2.0301E+00  0.000E+00  0.000E+00  0.000E+00  1.28008E+02  1.058E+00  3.078E+00  5.789E-04  1.429E-03 -5.267E-04
   1    4   45     1    45    2.0301E+00  9.0155E-04   2.0292E+00  0.000E+00  0.000E+00  0.000E+00  1.27708E+02  1.058E+00  3.078E+00  5.788E-04  1.486E-03 -5.844E-04
   1    4   46     1    46    2.0292E+00  9.0129E-04   2.0283E+00  0.000E+00  0.000E+00  0.000E+00  1.27407E+02  1.057E+00  3.078E+00  5.787E-04  1.589E-03 -6.872E-04
   1    4   47     1    47    2.0283E+00  9.0103E-04   2.0274E+00  0.000E+00  0.000E+00  0.000E+00  1.27107E+02  1.057E+00  3.077E+00  5.786E-04  1.742E-03 -8.414E-04
   1    4   48     1    48    2.0274E+00  9.0077E-04   2.0265E+00  0.000E+00  0.000E+00  0.000E+00  1.26807E+02  1.057E+00  3.077E+00  5.785E-04  1.864E-03 -9.630E-04
   1    4   49     1    49    2.0265E+00  9.0051E-04   2.0256E+00  0.000E+00  0.000E+00  0.000E+00  1.26507E+02  1.057E+00  3.077E+00  5.785E-04  2.020E-03 -1.120E-03
   1    4   50     1    50    2.0256E+00  9.0024E-04   2.0247E+00  0.000E+00  0.000E+00  0.000E+00  1.26206E+02  1.056E+00  3.077E+00  5.784E-04  2.123E-03 -1.223E-03
   1    4   51     1    51    2.0247E+00  8.9998E-04   2.0238E+00  0.000E+00  0.000E+00  0.000E+00  1.25906E+02  1.056E+00  3.076E+00  5.783E-04  2.108E-03 -1.208E-03
   1    4   52     1    52    2.0238E+00  8.9972E-04   2.0229E+00  0.000E+00  0.000E+00  0.000E+00  1.25606E+02  1.056E+00  3.076E+00  5.782E-04  2.098E-03 -1.199E-03
   1    4   53     1    53    2.0229E+00  8.9946E-04   2.0220E+00  0.000E+00  0.000E+00  0.000E+00  1.25306E+02  1.056E+00  3.076E+00  5.781E-04  2.098E-03 -1.199E-03
   1    4   54     1    54    2.0220E+00  8.9920E-04   2.0211E+00  0.000E+00  0.000E+00  0.000E+00  1.25006E+02  1.056E+00  3.075E+00  5.781E-04  2.106E-03 -1.207E-03
   1    4   55     1    55    2.0211E+00  8.9893E-04   2.0202E+00  0.000E+00  0.000E+00  0.000E+00  1.24705E+02  1.055E+00  3.075E+00  5.780E-04  2.121E-03 -1.223E-03
   1    4   56     1    56    2.0202E+00  8.9867E-04   2.0193E+00  0.000E+00  0.000E+00  0.000E+00  1.24405E+02  1.055E+00  3.075E+00  5.779E-04  2.033E-03 -1.134E-03
   1    4   57     1    57    2.0193E+00  8.9841E-04   2.0184E+00  0.000E+00  0.000E+00  0.000E+00  1.24105E+02  1.055E+00  3.074E+00  5.778E-04  1.887E-03 -9.890E-04
   1    4   58     1    58    2.0184E+00  8.9815E-04   2.0175E+00  0.000E+00  0.000E+00  0.000E+00  1.23805E+02  1.055E+00  3.074E+00  5.778E-04  1.774E-03 -8.758E-04
   1    4   59     1    59    2.0175E+00  8.9789E-04   2.0166E+00  0.000E+00  0.000E+00  0.000E+00  1.23504E+02  1.054E+00  3.074E+00  5.777E-04  1.610E-03 -7.118E-04
   1    4   60     1    60    2.0166E+00  8.9763E-04   2.0157E+00  0.000E+00  0.000E+00  0.000E+00  1.23204E+02  1.054E+00  3.074E+00  5.776E-04  1.518E-03 -6.203E-04
   1    4   61     1    61    2.0157E+00  8.9736E-04   2.0148E+00  0.000E+00  0.000E+00  0.000E+00  1.22904E+02  1.054E+00  3.073E+00  5.775E-04  1.452E-03 -5.542E-04
   1    4   62     1    62    2.0148E+00  8.9710E-04   2.0139E+00  0.000E+00  0.000E+00  0.000E+00  1.22604E+02  1.054E+00  3.073E+00  5.774E-04  1.371E-03 -4.742E-04
   1    4   63     1    63    2.0139E+00  8.9684E-04   2.0130E+00  0.000E+00  0.000E+00  0.000E+00  1.22303E+02  1.053E+00  3.073E+00  5.774E-04  1.313E-03 -4.162E-04
   1    4   64     1    64    2.0130E+00  8.9658E-04   2.0121E+00  0.000E+00  0.000E+00  0.000E+00  1.22003E+02  1.053E+00  3.072E+00  5.773E-04  1.263E-03 -3.665E-04
   1    4   65     1    65    2.0121E+00  8.9632E-04   2.0112E+00  0.000E+00  0.000E+00  0.000E+00  1.21703E+02  1.053E+00  3.072E+00  5.772E-04  1.200E-03 -3.040E-04
   1    4   66     1    66    2.0112E+00  8.9606E-04   2.0103E+00  0.000E+00  0.000E+00  0.000E+00  1.21403E+02  1.053E+00  3.072E+00  5.771E-04  1.124E-03 -2.275E-04
   1    4   67     1    67    2.0103E+00  8.9580E-04   2.0094E+00  0.000E+00  0.000E+00  0.000E+00  1.21102E+02  1.052E+00  3.072E+00  5.770E-04  1.077E-03 -1.814E-04
   1    4   68     1    68    2.0094E+00  8.9554E-04   2.0085E+00  0.000E+00  0.000E+00  0.000E+00  1.20802E+02  1.052E+00  3.071E+00  5.770E-04  1.044E-03 -1.480E-04
   1    4   69     1    69    2.0085E+00  8.9528E-04   2.0076E+00  0.000E+00  0.000E+00  0.000E+00  1.20502E+02  1.052E+00  3.071E+00  5.769E-04  9.976E-04 -1.022E-04
   1    4   70     1    70    2.0076E+00  8.9501E-04   2.0067E+00  0.000E+00  0.000E+00  0.000E+00  1.20202E+02  1.052E+00  3.071E+00  5.768E-04  9.539E-04 -5.883E-05
   1    4   71     1    71    2.0067E+00  8.9475E-04   2.0058E+00  0.000E+00  0.000E+00  0.000E+00  1.19901E+02  1.051E+00  3.070E+00  5.767E-04  9.125E-04 -1.765E-05
   1    4   72     1    72    2.0058E+00  8.9449E-04   2.0049E+00  0.000E+00  0.000E+00  0.000E+00  1.19601E+02  1.051E+00  3.070E+00  5.766E-04  8.715E-04  2.303E-05
   1    4   73     1    73    2.0049E+00  8.9423E-04   2.0040E+00  0.000E+00  0.000E+00  0.000E+00  1.19301E+02  1.051E+00  3.070E+00  5.766E-04  8.715E-04  2.277E-05
   1    4   74     1    74    2.0040E+00  8.9397E-04   2.0031E+00  0.000E+00  0.000E+00  0.000E+00  1.19001E+02  1.051E+00  3.070E+00  5.765E-04  8.717E-04  2.234E-05
   1    4   75     1    75    2.0031E+00  8.9371E-04   2.0022E+00  0.000E+00  0.000E+00  0.000E+00  1.18700E+02  1.050E+00  3.069E+00  5.764E-04  8.720E-04  2.179E-05
   1    4   76     1    76    2.0022E+00  8.9345E-04   2.0014E+00  0.000E+00  0.000E+00  0.000E+00  1.18400E+02  1.050E+00  3.069E+00  5.763E-04  8.723E-04  2.118E-05
   1    4   77     1    77    2.0014E+00  8.9319E-04   2.0005E+00  0.000E+00  0.000E+00  0.000E+00  1.18100E+02  1.050E+00  3.069E+00  5.763E-04  8.750E-04  1.828E-05
   1    4   78     1    78    2.0005E+00  8.9293E-04   1.9996E+00  0.000E+00  0.000E+00  0.000E+00  1.17800E+02  1.050E+00  3.068E+00  5.762E-04  9.326E-04 -3.963E-05
   1    4   79     1    79    1.9996E+00  8.9267E-04   1.9987E+00  0.000E+00  0.000E+00  0.000E+00  1.17500E+02  1.050E+00  3.068E+00  5.761E-04  9.123E-04 -1.957E-05
   1    4   80     1    80    1.9987E+00  8.9241E-04   1.9978E+00  0.000E+00  0.000E+00  0.000E+00  1.17199E+02  1.049E+00  3.068E+00  5.760E-04  9.092E-04 -1.671E-05
   1    4   81     1    81    1.9978E+00  8.9215E-04   1.9969E+00  0.000E+00  0.000E+00  0.000E+00  1.16899E+02  1.049E+00  3.068E+00  5.759E-04  9.100E-04 -1.781E-05
   1    4   82     1    82    1.9969E+00  8.9189E-04   1.9960E+00  0.000E+00  0.000E+00  0.000E+00  1.16599E+02  1.049E+00  3.067E+00  5.759E-04  9.109E-04 -1.897E-05
   1    4   83     1    83    1.9960E+00  8.9163E-04   1.9951E+00  0.000E+00  0.000E+00  0.000E+00  1.16299E+02  1.049E+00  3.067E+00  5.758E-04  9.118E-04 -2.019E-05
   1    4   84     1    84    1.9951E+00  8.9137E-04   1.9942E+00  0.000E+00  0.000E+00  0.000E+00  1.15998E+02  1.048E+00  3.067E+00  5.757E-04  9.129E-04 -2.151E-05
   1    4   85     1    85    1.9942E+00  8.9111E-04   1.9933E+00  0.000E+00  0.000E+00  0.000E+00  1.15698E+02  1.048E+00  3.066E+00  5.756E-04  9.140E-04 -2.292E-05
   1    4   86     1    86    1.9933E+00  8.9085E-04   1.9924E+00  0.000E+00  0.000E+00  0.000E+00  1.15398E+02  1.048E+00  3.066E+00  5.756E-04  9.153E-04 -2.440E-05
   1    4   87     1    87    1.9924E+00  8.9059E-04   1.9915E+00  0.000E+00  0.000E+00  0.000E+00  1.15098E+02  1.048E+00  3.066E+00  5.755E-04  9.166E-04 -2.597E-05
   1    4   88     1    88    1.9915E+00  8.9033E-04   1.9906E+00  0.000E+00  0.000E+00  0.000E+00  1.14797E+02  1.047E+00  3.066E+00  5.754E-04  9.180E-04 -2.763E-05
   1    4   89     1    89    1.9906E+00  8.9007E-04   1.9898E+00  0.000E+00  0.000E+00  0.000E+00  1.14497E+02  1.047E+00  3.065E+00  5.753E-04  9.194E-04 -2.937E-05
   1    4   90     1    90    1.9898E+00  8.8981E-04   1.9889E+00  0.000E+00  0.000E+00  0.000E+00  1.14197E+02  1.047E+00  3.065E+00  5.752E-04  9.210E-04 -3.122E-05
   1    4   91     1    91    1.9889E+00  8.8955E-04   1.9880E+00  0.000E+00  0.000E+00  0.000E+00  1.13897E+02  1.047E+00  3.065E+00  5.752E-04  9.227E-04 -3.317E-05
   1    4   92     1    92    1.9880E+00  8.8929E-04   1.9871E+00  0.000E+00  0.000E+00  0.000E+00  1.13596E+02  1.046E+00  3.064E+00  5.751E-04  9.246E-04 -3.526E-05
   1    4   93     1    93    1.9871E+00  8.8903E-04   1.9862E+00  0.000E+00  0.000E+00  0.000E+00  1.13296E+02  1.046E+00  3.064E+00  5.750E-04  9.265E-04 -3.750E-05
   1    4   94     1    94    1.9862E+00  8.8877E-04   1.9853E+00  0.000E+00  0.000E+00  0.000E+00  1.12996E+02  1.046E+00  3.064E+00  5.749E-04  9.287E-04 -3.993E-05
   1    4   95     1    95    1.9853E+00  8.8851E-04   1.9844E+00  0.000E+00  0.000E+00  0.000E+00  1.12696E+02  1.046E+00  3.064E+00  5.748E-04  9.311E-04 -4.256E-05
   1    4   96     1    96    1.9844E+00  8.8825E-04   1.9835E+00  0.000E+00  0.000E+00  0.000E+00  1.12395E+02  1.045E+00  3.063E+00  5.748E-04  9.337E-04 -4.540E-05
   1    4   97     1    97    1.9835E+00  8.8800E-04   1.9826E+00  0.000E+00  0.000E+00  0.000E+00  1.12095E+02  1.045E+00  3.063E+00  5.747E-04  9.365E-04 -4.847E-05
   1    4   98     1    98    1.9826E+00  8.8774E-04   1.9818E+00  0.000E+00  0.000E+00  0.000E+00  1.11795E+02  1.045E+00  3.063E+00  5.746E-04  9.395E-04 -5.173E-05
   1    4   99     1    99    1.9818E+00  8.8748E-04   1.9809E+00  0.000E+00  0.000E+00  0.000E+00  1.11495E+02  1.045E+00  3.062E+00  5.745E-04  9.426E-04 -5.513E-05
   1    4  100     1   100    1.9809E+00  8.8722E-04   1.9800E+00  0.000E+00  0.000E+00  0.000E+00  1.11194E+02  1.044E+00  3.062E+00  5.745E-04  9.458E-04 -5.860E-05



1
  VOLUMETRIC BUDGET FOR UNSATURATED ZONE BENEATH STREAMS AT END OF TIME STEP    30 STRESS PERIOD  33
  ------------------------------------------------------------------------------------------------

    CUMULATIVE VOLUMES             L**3    RATES FOR THIS TIME STEP         L**3/T
    ------------------                     ------------------------


          STREAM LOSS =     30079612.0000            STREAM LOSS =        9.0014E-02
    CHANGE IN STORAGE =      1241480.5000      CHANGE IN STORAGE =       -2.1579E-02
       RECHARGE TO GW =     28845510.0000         RECHARGE TO GW =            0.1116

             TOTAL IN =     30079612.0000               TOTAL IN =            0.1116

            TOTAL OUT =     30086990.0000              TOTAL OUT =            0.1116

             IN - OUT =        -7378.0000               IN - OUT =       -6.1691E-06

  PERCENT DISCREPANCY =           -0.01      PERCENT DISCREPANCY =            -0.00



1
  VOLUMETRIC BUDGET FOR ENTIRE MODEL AT END OF TIME STEP   30, STRESS PERIOD  33
  ------------------------------------------------------------------------------

     CUMULATIVE VOLUMES      L**3       RATES FOR THIS TIME STEP      L**3/T
     ------------------                 ------------------------

           IN:                                      IN:
           ---                                      ---
             STORAGE     =   102358592.0000               STORAGE     =           0.5258
       CONSTANT HEAD     =           0.0000         CONSTANT HEAD     =           0.0000
               WELLS     =           0.0000                 WELLS     =           0.0000
     HEAD DEP BOUNDS     =      545160.2500       HEAD DEP BOUNDS     =       5.1138E-02
      STREAM LEAKAGE     =    28845258.0000        STREAM LEAKAGE     =           0.1116

                TOTAL IN =   131749008.0000                  TOTAL IN =           0.6885

          OUT:                                     OUT:
          ----                                     ----
             STORAGE     =     3262701.0000               STORAGE     =           0.0000
       CONSTANT HEAD     =           0.0000         CONSTANT HEAD     =           0.0000
               WELLS     =   112100432.0000                 WELLS     =           0.6885
     HEAD DEP BOUNDS     =    16385952.0000       HEAD DEP BOUNDS     =           0.0000
      STREAM LEAKAGE     =           0.0000        STREAM LEAKAGE     =           0.0000

               TOTAL OUT =   131749088.0000                 TOTAL OUT =           0.6885

                IN - OUT =         -80.0000                  IN - OUT =      -5.9605E-08

     PERCENT DISCREPANCY =          -0.00         PERCENT DISCREPANCY =          -0.00






         TIME SUMMARY AT END OF TIME STEP   30 IN STRESS PERIOD   33
                    SECONDS     MINUTES      HOURS       DAYS        YEARS
                    -----------------------------------------------------------
   TIME STEP LENGTH 2.49961E+05  4166.0      69.434      2.8931     7.92080E-03
 STRESS PERIOD TIME 2.59200E+06  43200.      720.00      30.000     8.21355E-02
         TOTAL TIME 8.55360E+07 1.42560E+06  23760.      990.00      2.7105    
1
1
                            STRESS PERIOD NO.   34, LENGTH =   2592000.    
                            -----------------------------------------------

                              NUMBER OF TIME STEPS =    30

                               MULTIPLIER FOR DELT =     1.100

                            INITIAL TIME STEP SIZE =   15757.40    

 REUSING NON-PARAMETER WELLS FROM LAST STRESS PERIOD

      1 WELL 

 REUSING NON-PARAMETER GHB CELLS FROM LAST STRESS PERIOD

      7 GHB CELLS



 CLASSIFICATION & COUNT OF STREAM SEGMENTS BASED ON SOURCE OF INFLOW:

                HEADWATER     DIVERSION     RECEIVES TRIBUTARY FLOW
                ---------     ---------     -----------------------
                     1              0               0



                    INPUT DATA FOR EACH STREAM SEGMENT
 ---------------------------------------------------------------------------------------------

 SEGMENT    SEG.     INFLOW   OVERLAND   STREAM    STREAM   ICALC  OUTFLOW  DIVERSION PRIORITY
    NO.    LENGTH     RATE     RUNOFF      ET       PPT.    METH.  TO SEG.  FROM SEG.    NO.

      1  2.000E+04 3.500E-01 0.000E+00 0.000E+00 0.000E+00    2        0        0        0


         STREAMBED PROPERTIES AND STREAM DIMENSIONS

 SEGMENT     BED HYD. COND.      BED THICKNESS     ELEV.-TOP OF BED     WIDTH OF STREAM     DEPTH OF STREAM    STREAM ROUGHNESS
    No.     UPPER     LOWER     UPPER     LOWER     UPPER     LOWER     UPPER     LOWER     UPPER     LOWER   CHANNEL      BANK

     1  3.500E-07 3.500E-07                                                                                 3.000E-02 4.000E-02

  EIGHT POINT CROSS-SECTION DATA FOR SEGMENTS WITH ICALC = 2
    X VALUES X VALUES START FROM LEFT SIDE LOOKING DOWNSTREAM

     SEGMENT NO.        X1        X2        X3        X4        X5        X6        X7        X8
            1      0.000E+00 2.000E+00 4.000E+00 6.000E+00 8.000E+00 1.000E+01 1.200E+01 1.400E+01

    Z VALUES ARE RELATIVE TO STREAMBED ELEVATION

     SEGMENT NO.          Z1        Z2        Z3        Z4        Z5        Z6        Z7        Z8
            1      6.000E+00 4.500E+00 3.500E+00 0.000E+00 3.000E-01 3.500E+00 4.500E+00 6.000E+00



 
 SOLVING FOR HEAD 
                                                   Max.-Head-Change                         Max.-Flux-Residual
  Residual-Control   Outer-Iter.   Inner-Iter.     Column Row Layer    Maximum-Head-Change  Column Row Layer    Maximum-Flux-Residual          L2-NORM 
          0                 1           2            50    3     1       0.1605836860E+00      50    3    1         0.6186882267E-01      0.8119506230E-01
          0                 2           2            50    3     1      -0.1634689945E-01      50    3    1        -0.6446599760E-02      0.8436271067E-02
          0                 3           2            50    3     1       0.1451153702E-02      50    3    1         0.5776898775E-03      0.7567089873E-03
          0                 4           2            50    3     1      -0.1152259477E-03      50    3    1        -0.4629279268E-04      0.6071135887E-04
          0                 5           1            50    3     1       0.8026521103E-05      50    3    1         0.3254209534E-05      0.4272366483E-05
          0                 6           1            50    3     1      -0.4819713482E-06      50    3    1        -0.1971926793E-06      0.2590781134E-06

    ------------------------------------------------
       NWT REQUIRED            6 OUTER ITERATIONS 
       AND A TOTAL OF         10 INNER ITERATIONS.
    ------------------------------------------------

 NO OUTPUT CONTROL FOR STRESS PERIOD   34   TIME STEP    1
 
 WELLS WITH REDUCED PUMPING FOR STRESS PERIOD    34 TIME STEP     1
   LAY   ROW   COL         APPL.Q          ACT.Q        GW-HEAD       CELL-BOT
     1     3    50  -0.126021E+01  -0.347722E+00   0.387207E+01   0.000000E+00
     1     5    55  -0.126021E+01  -0.269307E+00   0.330971E+01   0.000000E+00
 
 
 SOLVING FOR HEAD 
                                                   Max.-Head-Change                         Max.-Flux-Residual
  Residual-Control   Outer-Iter.   Inner-Iter.     Column Row Layer    Maximum-Head-Change  Column Row Layer    Maximum-Flux-Residual          L2-NORM 
          0                 1           2            50    3     1       0.9183114401E-01      50    3    1         0.3326019447E-01      0.4787952054E-01
          0                 2           2            50    3     1      -0.9129743090E-02      50    3    1        -0.3408158058E-02      0.4855214327E-02
          0                 3           2            50    3     1       0.8105323551E-03      50    3    1         0.3059737050E-03      0.4371277166E-03
          0                 4           1            50    3     1      -0.6434012345E-04      50    3    1        -0.2451447670E-04      0.3516190631E-04
          0                 5           1            50    3     1       0.4481952487E-05      50    3    1         0.1723299942E-05      0.2480762429E-05
          0                 6           1            50    3     1      -0.2691281393E-06      50    3    1        -0.1044249363E-06      0.1507105282E-06

    ------------------------------------------------
       NWT REQUIRED            6 OUTER ITERATIONS 
       AND A TOTAL OF          9 INNER ITERATIONS.
    ------------------------------------------------

 NO OUTPUT CONTROL FOR STRESS PERIOD   34   TIME STEP    2
 
 WELLS WITH REDUCED PUMPING FOR STRESS PERIOD    34 TIME STEP     2
   LAY   ROW   COL         APPL.Q          ACT.Q        GW-HEAD       CELL-BOT
     1     3    50  -0.126021E+01  -0.360530E+00   0.395552E+01   0.000000E+00
     1     5    55  -0.126021E+01  -0.279264E+00   0.337914E+01   0.000000E+00
 
 
 SOLVING FOR HEAD 
                                                   Max.-Head-Change                         Max.-Flux-Residual
  Residual-Control   Outer-Iter.   Inner-Iter.     Column Row Layer    Maximum-Head-Change  Column Row Layer    Maximum-Flux-Residual          L2-NORM 
          0                 1           2            50    3     1       0.5175977607E-01      50    3    1         0.1743852541E-01      0.3151675349E-01
          0                 2           2            50    3     1      -0.5038405178E-02      50    3    1        -0.1769735347E-02      0.3120072694E-02
          0                 3           2            50    3     1       0.4464804375E-03      50    3    1         0.1590449862E-03      0.2822077035E-03
          0                 4           1            50    3     1      -0.3542752514E-04      50    3    1        -0.1274130332E-04      0.2284361721E-04
          0                 5           1            50    3     1       0.2467909166E-05      50    3    1         0.8956808924E-06      0.1621427585E-05
          0                 6           1            50    3     1      -0.1481894022E-06      50    3    1        -0.5427416719E-07      0.9894717158E-07

    ------------------------------------------------
       NWT REQUIRED            6 OUTER ITERATIONS 
       AND A TOTAL OF          9 INNER ITERATIONS.
    ------------------------------------------------

 NO OUTPUT CONTROL FOR STRESS PERIOD   34   TIME STEP    3
 
 WELLS WITH REDUCED PUMPING FOR STRESS PERIOD    34 TIME STEP     3
   LAY   ROW   COL         APPL.Q          ACT.Q        GW-HEAD       CELL-BOT
     1     3    50  -0.125984E+01  -0.367711E+00   0.400265E+01   0.000000E+00
     1     5    55  -0.125984E+01  -0.285022E+00   0.341951E+01   0.000000E+00
 
 
 SOLVING FOR HEAD 
                                                   Max.-Head-Change                         Max.-Flux-Residual
  Residual-Control   Outer-Iter.   Inner-Iter.     Column Row Layer    Maximum-Head-Change  Column Row Layer    Maximum-Flux-Residual          L2-NORM 
          0                 1           2            50    3     1       0.2852444335E-01      50    3    1         0.8801567569E-02      0.2474569921E-01
          0                 2           2            50    3     1      -0.2714187405E-02      50    3    1        -0.8879354566E-03      0.2408524858E-02
          0                 3           2            50    3     1       0.2395317252E-03      50    3    1         0.7984667785E-04      0.2188339080E-03
          0                 4           1            50    3     1      -0.1899203325E-04      50    3    1        -0.6396235954E-05      0.1785877391E-04
          0                 5           1            50    3     1       0.1322970865E-05      50    3    1         0.4496373250E-06      0.1277728088E-05
          0                 6           1            50    3     1      -0.7943925223E-07      50    3    1        -0.2724572046E-07      0.7845356439E-07

    ------------------------------------------------
       NWT REQUIRED            6 OUTER ITERATIONS 
       AND A TOTAL OF          9 INNER ITERATIONS.
    ------------------------------------------------

 NO OUTPUT CONTROL FOR STRESS PERIOD   34   TIME STEP    4
 
 WELLS WITH REDUCED PUMPING FOR STRESS PERIOD    34 TIME STEP     4
   LAY   ROW   COL         APPL.Q          ACT.Q        GW-HEAD       CELL-BOT
     1     3    50  -0.126017E+01  -0.371851E+00   0.402868E+01   0.000000E+00
     1     5    55  -0.126017E+01  -0.288415E+00   0.344230E+01   0.000000E+00
 
 
 SOLVING FOR HEAD 
                                                   Max.-Head-Change                         Max.-Flux-Residual
  Residual-Control   Outer-Iter.   Inner-Iter.     Column Row Layer    Maximum-Head-Change  Column Row Layer    Maximum-Flux-Residual          L2-NORM 
          0                 1           2            50    3     1       0.1615754865E-01      50    3    1         0.4494188062E-02      0.2254550400E-01
          0                 2           2            50    3     1      -0.1504068266E-02      50    3    1        -0.4517816191E-03      0.2184337342E-02
          0                 3           2            50    3     1       0.1318974557E-03      50    3    1         0.4064007689E-04      0.1989691235E-03
          0                 4           1            50    3     1      -0.1044262179E-04      50    3    1        -0.3255421909E-05      0.1632775441E-04
          0                 5           1            50    3     1       0.7273298938E-06      50    3    1         0.2288450245E-06      0.1174963980E-05

    ------------------------------------------------
       NWT REQUIRED            5 OUTER ITERATIONS 
       AND A TOTAL OF          8 INNER ITERATIONS.
    ------------------------------------------------

 NO OUTPUT CONTROL FOR STRESS PERIOD   34   TIME STEP    5
 
 WELLS WITH REDUCED PUMPING FOR STRESS PERIOD    34 TIME STEP     5
   LAY   ROW   COL         APPL.Q          ACT.Q        GW-HEAD       CELL-BOT
     1     3    50  -0.126009E+01  -0.374124E+00   0.404346E+01   0.000000E+00
     1     5    55  -0.126009E+01  -0.290299E+00   0.345536E+01   0.000000E+00
 
 
 SOLVING FOR HEAD 
                                                   Max.-Head-Change                         Max.-Flux-Residual
  Residual-Control   Outer-Iter.   Inner-Iter.     Column Row Layer    Maximum-Head-Change  Column Row Layer    Maximum-Flux-Residual          L2-NORM 
          0                 1           2            50    2     1       0.1197870964E-01      50    3    1         0.2352877803E-02      0.2185321495E-01
          0                 2           2            50    2     1      -0.1180608326E-02      50    3    1        -0.2359960310E-03      0.2116697328E-02
          0                 3           1            50    2     1       0.1051162262E-03      50    3    1         0.2123358924E-04      0.1930543564E-03
          0                 4           1            50    2     1      -0.8340982810E-05      50    3    1        -0.1700770853E-05      0.1589506700E-04
          0                 5           1            50    2     1       0.5810292836E-06      50    3    1         0.1195562861E-06      0.1148328205E-05

    ------------------------------------------------
       NWT REQUIRED            5 OUTER ITERATIONS 
       AND A TOTAL OF          7 INNER ITERATIONS.
    ------------------------------------------------

 NO OUTPUT CONTROL FOR STRESS PERIOD   34   TIME STEP    6
 
 WELLS WITH REDUCED PUMPING FOR STRESS PERIOD    34 TIME STEP     6
   LAY   ROW   COL         APPL.Q          ACT.Q        GW-HEAD       CELL-BOT
     1     3    50  -0.125993E+01  -0.375439E+00   0.405220E+01   0.000000E+00
     1     5    55  -0.125993E+01  -0.291385E+00   0.346304E+01   0.000000E+00
 
 
 SOLVING FOR HEAD 
                                                   Max.-Head-Change                         Max.-Flux-Residual
  Residual-Control   Outer-Iter.   Inner-Iter.     Column Row Layer    Maximum-Head-Change  Column Row Layer    Maximum-Flux-Residual          L2-NORM 
          0                 1           2             1    1     1      -0.1032150759E-01      50    2    1         0.1545619245E-02      0.2160599062E-01
          0                 2           2            50    2     1      -0.1015099678E-02      50    2    1        -0.1546924018E-03      0.2093936670E-02
          0                 3           1            50    2     1       0.9037324559E-04      50    2    1         0.1392094996E-04      0.1911505964E-03
          0                 4           1            50    2     1      -0.7170600897E-05      50    2    1        -0.1115079457E-05      0.1577712219E-04
          0                 5           1            50    2     1       0.4994891021E-06      50    2    1         0.7838893351E-07      0.1143470229E-05

    ------------------------------------------------
       NWT REQUIRED            5 OUTER ITERATIONS 
       AND A TOTAL OF          7 INNER ITERATIONS.
    ------------------------------------------------

 NO OUTPUT CONTROL FOR STRESS PERIOD   34   TIME STEP    7
 
 WELLS WITH REDUCED PUMPING FOR STRESS PERIOD    34 TIME STEP     7
   LAY   ROW   COL         APPL.Q          ACT.Q        GW-HEAD       CELL-BOT
     1     3    50  -0.125986E+01  -0.376261E+00   0.405762E+01   0.000000E+00
     1     5    55  -0.125986E+01  -0.292049E+00   0.346770E+01   0.000000E+00
 
 
 SOLVING FOR HEAD 
                                                   Max.-Head-Change                         Max.-Flux-Residual
  Residual-Control   Outer-Iter.   Inner-Iter.     Column Row Layer    Maximum-Head-Change  Column Row Layer    Maximum-Flux-Residual          L2-NORM 
          0                 1           2             1    1     1      -0.1134864575E-01       1    1    1        -0.1213391018E-02      0.2150101156E-01
          0                 2           2             1    1     1       0.1088841071E-02       1    1    1         0.1213386027E-03      0.2084263672E-02
          0                 3           1             1    1     1      -0.9444745570E-04       1    1    1        -0.1092052846E-04      0.1904017450E-03
          0                 4           1             1    1     1       0.7323821762E-05       1    1    1         0.8747338534E-06      0.1574968627E-04
          0                 5           1             1    1     1      -0.5006244666E-06       1    4    1         0.6782143913E-07      0.1144930015E-05

    ------------------------------------------------
       NWT REQUIRED            5 OUTER ITERATIONS 
       AND A TOTAL OF          7 INNER ITERATIONS.
    ------------------------------------------------

 NO OUTPUT CONTROL FOR STRESS PERIOD   34   TIME STEP    8
 
 WELLS WITH REDUCED PUMPING FOR STRESS PERIOD    34 TIME STEP     8
   LAY   ROW   COL         APPL.Q          ACT.Q        GW-HEAD       CELL-BOT
     1     3    50  -0.125989E+01  -0.376809E+00   0.406106E+01   0.000000E+00
     1     5    55  -0.125989E+01  -0.292474E+00   0.347055E+01   0.000000E+00
 
 
 SOLVING FOR HEAD 
                                                   Max.-Head-Change                         Max.-Flux-Residual
  Residual-Control   Outer-Iter.   Inner-Iter.     Column Row Layer    Maximum-Head-Change  Column Row Layer    Maximum-Flux-Residual          L2-NORM 
          0                 1           2             1    1     1      -0.1247770322E-01       1    1    1        -0.1213121894E-02      0.2144024302E-01
          0                 2           2             1    1     1       0.1194157679E-02       1    1    1         0.1213115987E-03      0.2079594620E-02
          0                 3           1             1    1     1      -0.1033084514E-03       1    1    1        -0.1091810768E-04      0.1901154216E-03
          0                 4           1             1    1     1       0.7989221920E-05       1    1    1         0.8745398077E-06      0.1575844550E-04
          0                 5           1             1    1     1      -0.5446672684E-06       1    4    1         0.6987168177E-07      0.1148950242E-05

    ------------------------------------------------
       NWT REQUIRED            5 OUTER ITERATIONS 
       AND A TOTAL OF          7 INNER ITERATIONS.
    ------------------------------------------------

 NO OUTPUT CONTROL FOR STRESS PERIOD   34   TIME STEP    9
 
 WELLS WITH REDUCED PUMPING FOR STRESS PERIOD    34 TIME STEP     9
   LAY   ROW   COL         APPL.Q          ACT.Q        GW-HEAD       CELL-BOT
     1     3    50  -0.125995E+01  -0.377172E+00   0.406328E+01   0.000000E+00
     1     5    55  -0.125995E+01  -0.292741E+00   0.347228E+01   0.000000E+00
 
 
 SOLVING FOR HEAD 
                                                   Max.-Head-Change                         Max.-Flux-Residual
  Residual-Control   Outer-Iter.   Inner-Iter.     Column Row Layer    Maximum-Head-Change  Column Row Layer    Maximum-Flux-Residual          L2-NORM 
          0                 1           2             1    1     1      -0.1371875710E-01       1    1    1        -0.1212827503E-02      0.2140726285E-01
          0                 2           2             1    1     1       0.1309595862E-02       1    1    1         0.1212820545E-03      0.2076302253E-02
          0                 3           2             1    1     1      -0.1129875768E-03       1    1    1        -0.1091545965E-04      0.1899350486E-03
          0                 4           1             1    1     1       0.8713868726E-05       1    1    1         0.8743275544E-06      0.1577801839E-04
          0                 5           1             1    1     1      -0.5923788756E-06       1    4    1         0.7186537232E-07      0.1153804659E-05

    ------------------------------------------------
       NWT REQUIRED            5 OUTER ITERATIONS 
       AND A TOTAL OF          8 INNER ITERATIONS.
    ------------------------------------------------

 NO OUTPUT CONTROL FOR STRESS PERIOD   34   TIME STEP   10
 
 WELLS WITH REDUCED PUMPING FOR STRESS PERIOD    34 TIME STEP    10
   LAY   ROW   COL         APPL.Q          ACT.Q        GW-HEAD       CELL-BOT
     1     3    50  -0.125989E+01  -0.377404E+00   0.406487E+01   0.000000E+00
     1     5    55  -0.125989E+01  -0.292899E+00   0.347344E+01   0.000000E+00
 
 
 SOLVING FOR HEAD 
                                                   Max.-Head-Change                         Max.-Flux-Residual
  Residual-Control   Outer-Iter.   Inner-Iter.     Column Row Layer    Maximum-Head-Change  Column Row Layer    Maximum-Flux-Residual          L2-NORM 
          0                 1           2             1    1     1      -0.1508286953E-01       1    1    1        -0.1212505450E-02      0.2139377924E-01
          0                 2           2             1    1     1       0.1436142823E-02       1    1    1         0.1212497287E-03      0.2073960043E-02
          0                 3           2             1    1     1      -0.1235611237E-03       1    1    1        -0.1091256285E-04      0.1898322127E-03
          0                 4           1             1    1     1       0.9501400243E-05       1    1    1         0.8740953525E-06      0.1580180030E-04
          0                 5           1             1    1     1      -0.6439488937E-06       1    4    1         0.7378359967E-07      0.1158963651E-05

    ------------------------------------------------
       NWT REQUIRED            5 OUTER ITERATIONS 
       AND A TOTAL OF          8 INNER ITERATIONS.
    ------------------------------------------------

 NO OUTPUT CONTROL FOR STRESS PERIOD   34   TIME STEP   11
 
 WELLS WITH REDUCED PUMPING FOR STRESS PERIOD    34 TIME STEP    11
   LAY   ROW   COL         APPL.Q          ACT.Q        GW-HEAD       CELL-BOT
     1     3    50  -0.126004E+01  -0.377592E+00   0.406579E+01   0.000000E+00
     1     5    55  -0.126004E+01  -0.293016E+00   0.347401E+01   0.000000E+00
 
 
 SOLVING FOR HEAD 
                                                   Max.-Head-Change                         Max.-Flux-Residual
  Residual-Control   Outer-Iter.   Inner-Iter.     Column Row Layer    Maximum-Head-Change  Column Row Layer    Maximum-Flux-Residual          L2-NORM 
          0                 1           2             1    1     1      -0.1658218661E-01       1    1    1        -0.1212153098E-02      0.2137665864E-01
          0                 2           2             1    1     1       0.1574884738E-02       1    1    1         0.1212143560E-03      0.2073047515E-02
          0                 3           2             1    1     1      -0.1351156679E-03       1    1    1        -0.1090939355E-04      0.1898774588E-03
          0                 4           1             1    1     1       0.1035840998E-04       1    7    1         0.8738412935E-06      0.1583678599E-04
          0                 5           1             1    1     1      -0.6997531122E-06       1    4    1         0.7562791282E-07      0.1164865546E-05

    ------------------------------------------------
       NWT REQUIRED            5 OUTER ITERATIONS 
       AND A TOTAL OF          8 INNER ITERATIONS.
    ------------------------------------------------

 NO OUTPUT CONTROL FOR STRESS PERIOD   34   TIME STEP   12
 
 WELLS WITH REDUCED PUMPING FOR STRESS PERIOD    34 TIME STEP    12
   LAY   ROW   COL         APPL.Q          ACT.Q        GW-HEAD       CELL-BOT
     1     3    50  -0.126006E+01  -0.377674E+00   0.406627E+01   0.000000E+00
     1     5    55  -0.126006E+01  -0.293043E+00   0.347416E+01   0.000000E+00
 
 
 SOLVING FOR HEAD 
                                                   Max.-Head-Change                         Max.-Flux-Residual
  Residual-Control   Outer-Iter.   Inner-Iter.     Column Row Layer    Maximum-Head-Change  Column Row Layer    Maximum-Flux-Residual          L2-NORM 
          0                 1           2             1    1     1      -0.1823004064E-01       1    1    1        -0.1211767550E-02      0.2136432757E-01
          0                 2           2             1    1     1       0.1727016234E-02       1    1    1         0.1211756449E-03      0.2071810357E-02
          0                 3           2             1    1     1      -0.1477459719E-03       1    1    1        -0.1090592568E-04      0.1898890793E-03
          0                 4           1             1    1     1       0.1129141762E-04       1    7    1         0.8735632968E-06      0.1586984690E-04
          0                 5           1             1    1     1      -0.7601517213E-06       1    4    1         0.7739432917E-07      0.1170653301E-05

    ------------------------------------------------
       NWT REQUIRED            5 OUTER ITERATIONS 
       AND A TOTAL OF          8 INNER ITERATIONS.
    ------------------------------------------------

 NO OUTPUT CONTROL FOR STRESS PERIOD   34   TIME STEP   13
 
 WELLS WITH REDUCED PUMPING FOR STRESS PERIOD    34 TIME STEP    13
   LAY   ROW   COL         APPL.Q          ACT.Q        GW-HEAD       CELL-BOT
     1     3    50  -0.126006E+01  -0.377707E+00   0.406648E+01   0.000000E+00
     1     5    55  -0.126006E+01  -0.293029E+00   0.347406E+01   0.000000E+00
 
 
 SOLVING FOR HEAD 
                                                   Max.-Head-Change                         Max.-Flux-Residual
  Residual-Control   Outer-Iter.   Inner-Iter.     Column Row Layer    Maximum-Head-Change  Column Row Layer    Maximum-Flux-Residual          L2-NORM 
          0                 1           2             1    1     1      -0.2004106156E-01       1    1    1        -0.1211345619E-02      0.2135454595E-01
          0                 2           2             1    1     1       0.1893850670E-02       1    1    1         0.1211332747E-03      0.2070816400E-02
          0                 3           2             1    1     1      -0.1615564995E-03       1    1    1        -0.1090213059E-04      0.1899438646E-03
          0                 4           1             1    1     1       0.1230762838E-04       1    1    1         0.8732590615E-06      0.1590753111E-04
          0                 5           1             1    1     1      -0.8255350248E-06       1    4    1         0.7907933153E-07      0.1176749117E-05

    ------------------------------------------------
       NWT REQUIRED            5 OUTER ITERATIONS 
       AND A TOTAL OF          8 INNER ITERATIONS.
    ------------------------------------------------

 NO OUTPUT CONTROL FOR STRESS PERIOD   34   TIME STEP   14
 
 WELLS WITH REDUCED PUMPING FOR STRESS PERIOD    34 TIME STEP    14
   LAY   ROW   COL         APPL.Q          ACT.Q        GW-HEAD       CELL-BOT
     1     3    50  -0.126003E+01  -0.377695E+00   0.406648E+01   0.000000E+00
     1     5    55  -0.126003E+01  -0.292980E+00   0.347379E+01   0.000000E+00
 
 
 SOLVING FOR HEAD 
                                                   Max.-Head-Change                         Max.-Flux-Residual
  Residual-Control   Outer-Iter.   Inner-Iter.     Column Row Layer    Maximum-Head-Change  Column Row Layer    Maximum-Flux-Residual          L2-NORM 
          0                 1           2             1    1     1      -0.2203129873E-01       1    1    1        -0.1210883801E-02      0.2134724652E-01
          0                 2           2             1    1     1       0.2076831307E-02       1    1    1         0.1210868926E-03      0.2069785457E-02
          0                 3           2             1    1     1      -0.1766623410E-03       1    1    1        -0.1089797673E-04      0.1899463117E-03
          0                 4           1             1    1     1       0.1341499646E-04       1    1    1         0.8729260550E-06      0.1593732079E-04
          0                 5           1             1    1     1      -0.8963217223E-06       1    4    1         0.8067981128E-07      0.1182058600E-05

    ------------------------------------------------
       NWT REQUIRED            5 OUTER ITERATIONS 
       AND A TOTAL OF          8 INNER ITERATIONS.
    ------------------------------------------------

 NO OUTPUT CONTROL FOR STRESS PERIOD   34   TIME STEP   15
 
 WELLS WITH REDUCED PUMPING FOR STRESS PERIOD    34 TIME STEP    15
   LAY   ROW   COL         APPL.Q          ACT.Q        GW-HEAD       CELL-BOT
     1     3    50  -0.126003E+01  -0.377627E+00   0.406605E+01   0.000000E+00
     1     5    55  -0.126003E+01  -0.292879E+00   0.347310E+01   0.000000E+00
 
 
 SOLVING FOR HEAD 
                                                   Max.-Head-Change                         Max.-Flux-Residual
  Residual-Control   Outer-Iter.   Inner-Iter.     Column Row Layer    Maximum-Head-Change  Column Row Layer    Maximum-Flux-Residual          L2-NORM 
          0                 1           2             1    1     1      -0.2421835394E-01       1    1    1        -0.1210378235E-02      0.2133874894E-01
          0                 2           2             1    1     1       0.2277543443E-02       1    1    1         0.1210361103E-03      0.2069015682E-02
          0                 3           2             1    1     1      -0.1931902105E-03       1    1    1        -0.1089342936E-04      0.1899506686E-03
          0                 4           1             1    1     1       0.1462228962E-04       1    7    1         0.8725614928E-06      0.1596508102E-04
          0                 5           1             1    1     1      -0.9729546737E-06       2    4    1         0.8220638392E-07      0.1186998001E-05

    ------------------------------------------------
       NWT REQUIRED            5 OUTER ITERATIONS 
       AND A TOTAL OF          8 INNER ITERATIONS.
    ------------------------------------------------

 NO OUTPUT CONTROL FOR STRESS PERIOD   34   TIME STEP   16
 
 WELLS WITH REDUCED PUMPING FOR STRESS PERIOD    34 TIME STEP    16
   LAY   ROW   COL         APPL.Q          ACT.Q        GW-HEAD       CELL-BOT
     1     3    50  -0.126003E+01  -0.377512E+00   0.406530E+01   0.000000E+00
     1     5    55  -0.126003E+01  -0.292737E+00   0.347213E+01   0.000000E+00
 
 
 SOLVING FOR HEAD 
                                                   Max.-Head-Change                         Max.-Flux-Residual
  Residual-Control   Outer-Iter.   Inner-Iter.     Column Row Layer    Maximum-Head-Change  Column Row Layer    Maximum-Flux-Residual          L2-NORM 
          0                 1           2             1    1     1      -0.2662152628E-01       1    1    1        -0.1209824669E-02      0.2132811690E-01
          0                 2           2             1    1     1       0.2497727557E-02       1    1    1         0.1209804999E-03      0.2068247784E-02
          0                 3           2             1    1     1      -0.2112795193E-03       1    1    1        -0.1088845023E-04      0.1899694919E-03
          0                 4           1             1    1     1       0.1593915573E-04       1    1    1         0.8721623104E-06      0.1599333622E-04
          0                 5           1             1    1     1      -0.1055891992E-05       2    4    1         0.8365369553E-07      0.1191687563E-05
          0                 6           1             1    1     1       0.6050752212E-07       2    4    1        -0.6452385293E-08      0.7644319476E-07

    ------------------------------------------------
       NWT REQUIRED            6 OUTER ITERATIONS 
       AND A TOTAL OF          9 INNER ITERATIONS.
    ------------------------------------------------

 NO OUTPUT CONTROL FOR STRESS PERIOD   34   TIME STEP   17
 
 WELLS WITH REDUCED PUMPING FOR STRESS PERIOD    34 TIME STEP    17
   LAY   ROW   COL         APPL.Q          ACT.Q        GW-HEAD       CELL-BOT
     1     3    50  -0.126005E+01  -0.377366E+00   0.406432E+01   0.000000E+00
     1     5    55  -0.126005E+01  -0.292571E+00   0.347095E+01   0.000000E+00
 
 
 SOLVING FOR HEAD 
                                                   Max.-Head-Change                         Max.-Flux-Residual
  Residual-Control   Outer-Iter.   Inner-Iter.     Column Row Layer    Maximum-Head-Change  Column Row Layer    Maximum-Flux-Residual          L2-NORM 
          0                 1           2             1    1     1      -0.2926197239E-01       1    7    1        -0.1209219320E-02      0.2132265247E-01
          0                 2           2             1    1     1       0.2739293979E-02       1    7    1         0.1209196797E-03      0.2067127768E-02
          0                 3           2             1    1     1      -0.2310835807E-03       1    7    1        -0.1088300524E-04      0.1899430398E-03
          0                 4           1             1    1     1       0.1737619416E-04       1    1    1         0.8717257778E-06      0.1601811653E-04
          0                 5           1             1    1     1      -0.1145594803E-05       2    4    1         0.8501691084E-07      0.1195884640E-05
          0                 6           1             1    1     1       0.6530527224E-07       2    4    1        -0.6582268952E-08      0.7691138961E-07

    ------------------------------------------------
       NWT REQUIRED            6 OUTER ITERATIONS 
       AND A TOTAL OF          9 INNER ITERATIONS.
    ------------------------------------------------

 NO OUTPUT CONTROL FOR STRESS PERIOD   34   TIME STEP   18
 
 WELLS WITH REDUCED PUMPING FOR STRESS PERIOD    34 TIME STEP    18
   LAY   ROW   COL         APPL.Q          ACT.Q        GW-HEAD       CELL-BOT
     1     3    50  -0.126004E+01  -0.377146E+00   0.406294E+01   0.000000E+00
     1     5    55  -0.126004E+01  -0.292340E+00   0.346939E+01   0.000000E+00
 
 
 SOLVING FOR HEAD 
                                                   Max.-Head-Change                         Max.-Flux-Residual
  Residual-Control   Outer-Iter.   Inner-Iter.     Column Row Layer    Maximum-Head-Change  Column Row Layer    Maximum-Flux-Residual          L2-NORM 
          0                 1           2             1    1     1      -0.3216284597E-01       1    7    1        -0.1208555617E-02      0.2130837020E-01
          0                 2           2             1    1     1       0.3004334615E-02       1    7    1         0.1208529897E-03      0.2066222027E-02
          0                 3           2             1    1     1      -0.2527704770E-03       1    7    1        -0.1087703530E-04      0.1899416001E-03
          0                 4           1             1    1     1       0.1894498729E-04       1    7    1         0.8712471344E-06      0.1604280676E-04
          0                 5           1             1    1     1      -0.1242503436E-05       2    4    1         0.8629522696E-07      0.1199569782E-05
          0                 6           1             1    1     1       0.7042259657E-07       2    4    1        -0.6703505306E-08      0.7731811426E-07

    ------------------------------------------------
       NWT REQUIRED            6 OUTER ITERATIONS 
       AND A TOTAL OF          9 INNER ITERATIONS.
    ------------------------------------------------

 NO OUTPUT CONTROL FOR STRESS PERIOD   34   TIME STEP   19
 
 WELLS WITH REDUCED PUMPING FOR STRESS PERIOD    34 TIME STEP    19
   LAY   ROW   COL         APPL.Q          ACT.Q        GW-HEAD       CELL-BOT
     1     3    50  -0.125997E+01  -0.376869E+00   0.406129E+01   0.000000E+00
     1     5    55  -0.125997E+01  -0.292060E+00   0.346759E+01   0.000000E+00
 
 
 SOLVING FOR HEAD 
                                                   Max.-Head-Change                         Max.-Flux-Residual
  Residual-Control   Outer-Iter.   Inner-Iter.     Column Row Layer    Maximum-Head-Change  Column Row Layer    Maximum-Flux-Residual          L2-NORM 
          0                 1           2             1    1     1      -0.3534951976E-01       1    7    1        -0.1207828106E-02      0.2129133369E-01
          0                 2           2             1    1     1       0.3295143785E-02       1    7    1         0.1207798810E-03      0.2064737146E-02
          0                 3           2             1    1     1      -0.2765248170E-03       1    7    1        -0.1087049129E-04      0.1899243033E-03
          0                 4           1             1    1     1       0.2065820056E-04       1    1    1         0.8707224666E-06      0.1606936438E-04
          0                 5           1             1    1     1      -0.1347010501E-05       2    4    1         0.8748888547E-07      0.1203058081E-05
          0                 6           1             1    1     1       0.7585725477E-07       2    4    1        -0.6815572107E-08      0.7768235351E-07

    ------------------------------------------------
       NWT REQUIRED            6 OUTER ITERATIONS 
       AND A TOTAL OF          9 INNER ITERATIONS.
    ------------------------------------------------

 NO OUTPUT CONTROL FOR STRESS PERIOD   34   TIME STEP   20
 
 WELLS WITH REDUCED PUMPING FOR STRESS PERIOD    34 TIME STEP    20
   LAY   ROW   COL         APPL.Q          ACT.Q        GW-HEAD       CELL-BOT
     1     3    50  -0.125996E+01  -0.376565E+00   0.405936E+01   0.000000E+00
     1     5    55  -0.125996E+01  -0.291757E+00   0.346553E+01   0.000000E+00
 
 
 SOLVING FOR HEAD 
                                                   Max.-Head-Change                         Max.-Flux-Residual
  Residual-Control   Outer-Iter.   Inner-Iter.     Column Row Layer    Maximum-Head-Change  Column Row Layer    Maximum-Flux-Residual          L2-NORM 
          0                 1           2             1    1     1      -0.3884975977E-01       1    7    1        -0.1207030680E-02      0.2127318831E-01
          0                 2           2             1    1     1       0.3614232893E-02       1    7    1         0.1206997386E-03      0.2062942206E-02
          0                 3           2             1    1     1      -0.3025488210E-03       1    7    1        -0.1086331823E-04      0.1898625809E-03
          0                 4           1             1    1     1       0.2252961082E-04       1    7    1         0.8701473546E-06      0.1609006877E-04
          0                 5           1             1    1     1      -0.1459419335E-05       2    4    1         0.8859826295E-07      0.1205389442E-05
          0                 6           1             1    1     1       0.8159335551E-07       2    4    1        -0.6917947104E-08      0.7792863526E-07

    ------------------------------------------------
       NWT REQUIRED            6 OUTER ITERATIONS 
       AND A TOTAL OF          9 INNER ITERATIONS.
    ------------------------------------------------

 NO OUTPUT CONTROL FOR STRESS PERIOD   34   TIME STEP   21
 
 WELLS WITH REDUCED PUMPING FOR STRESS PERIOD    34 TIME STEP    21
   LAY   ROW   COL         APPL.Q          ACT.Q        GW-HEAD       CELL-BOT
     1     3    50  -0.126000E+01  -0.376183E+00   0.405684E+01   0.000000E+00
     1     5    55  -0.126000E+01  -0.291384E+00   0.346292E+01   0.000000E+00
 
 
 SOLVING FOR HEAD 
                                                   Max.-Head-Change                         Max.-Flux-Residual
  Residual-Control   Outer-Iter.   Inner-Iter.     Column Row Layer    Maximum-Head-Change  Column Row Layer    Maximum-Flux-Residual          L2-NORM 
          0                 1           2             1    1     1      -0.4269393302E-01       1    7    1        -0.1206156463E-02      0.2124809456E-01
          0                 2           2             1    1     1       0.3964348461E-02       1    1    1         0.1206118704E-03      0.2060658043E-02
          0                 3           2             1    1     1      -0.3310637058E-03       1    7    1        -0.1085545417E-04      0.1897101728E-03
          0                 4           1             1    1     1       0.2457413857E-04       1    1    1         0.8695168354E-06      0.1609857594E-04
          0                 5           1             1    1     1      -0.1579881910E-05       2    4    1         0.8962372533E-07      0.1205876313E-05
          0                 6           1             1    1     1       0.8759535238E-07       2    4    1        -0.7009923308E-08      0.7800512221E-07

    ------------------------------------------------
       NWT REQUIRED            6 OUTER ITERATIONS 
       AND A TOTAL OF          9 INNER ITERATIONS.
    ------------------------------------------------

 NO OUTPUT CONTROL FOR STRESS PERIOD   34   TIME STEP   22
 
 WELLS WITH REDUCED PUMPING FOR STRESS PERIOD    34 TIME STEP    22
   LAY   ROW   COL         APPL.Q          ACT.Q        GW-HEAD       CELL-BOT
     1     3    50  -0.125999E+01  -0.375732E+00   0.405396E+01   0.000000E+00
     1     5    55  -0.125999E+01  -0.290952E+00   0.345998E+01   0.000000E+00
 
 
 SOLVING FOR HEAD 
                                                   Max.-Head-Change                         Max.-Flux-Residual
  Residual-Control   Outer-Iter.   Inner-Iter.     Column Row Layer    Maximum-Head-Change  Column Row Layer    Maximum-Flux-Residual          L2-NORM 
          0                 1           2             1    1     1      -0.4691523065E-01       1    7    1        -0.1205197810E-02      0.2121689370E-01
          0                 2           2             1    1     1       0.4348490730E-02       1    1    1         0.1205155069E-03      0.2057997798E-02
          0                 3           2             1    1     1      -0.3623110598E-03       1    7    1        -0.1084683029E-04      0.1895379611E-03
          0                 4           1             1    1     1       0.2680785587E-04       1    4    1        -0.8716619746E-06      0.1610477677E-04
          0                 5           1             1    1     1      -0.1708316340E-05       7    4    1         0.9059226258E-07      0.1205188588E-05
          0                 6           1             1    1     1       0.9380126319E-07       2    4    1        -0.7090751097E-08      0.7794401421E-07

    ------------------------------------------------
       NWT REQUIRED            6 OUTER ITERATIONS 
       AND A TOTAL OF          9 INNER ITERATIONS.
    ------------------------------------------------

 NO OUTPUT CONTROL FOR STRESS PERIOD   34   TIME STEP   23
 
 WELLS WITH REDUCED PUMPING FOR STRESS PERIOD    34 TIME STEP    23
   LAY   ROW   COL         APPL.Q          ACT.Q        GW-HEAD       CELL-BOT
     1     3    50  -0.126002E+01  -0.375245E+00   0.405078E+01   0.000000E+00
     1     5    55  -0.126002E+01  -0.290490E+00   0.345677E+01   0.000000E+00
 
 
 SOLVING FOR HEAD 
                                                   Max.-Head-Change                         Max.-Flux-Residual
  Residual-Control   Outer-Iter.   Inner-Iter.     Column Row Layer    Maximum-Head-Change  Column Row Layer    Maximum-Flux-Residual          L2-NORM 
          0                 1           2             1    1     1      -0.5154990933E-01       1    7    1        -0.1204146271E-02      0.2118683661E-01
          0                 2           2             1    1     1       0.4769933015E-02       1    1    1         0.1204097971E-03      0.2054701725E-02
          0                 3           2             1    1     1      -0.3965541926E-03       1    7    1        -0.1083737046E-04      0.1893056120E-03
          0                 4           1             1    1     1       0.2924796915E-04       1    4    1        -0.8779071230E-06      0.1610615127E-04
          0                 5           1             1    1     1      -0.1844303985E-05       7    4    1         0.9175354165E-07      0.1203037430E-05
          0                 6           1             1    1     1       0.1001134548E-06       2    4    1        -0.7159457027E-08      0.7772195590E-07

    ------------------------------------------------
       NWT REQUIRED            6 OUTER ITERATIONS 
       AND A TOTAL OF          9 INNER ITERATIONS.
    ------------------------------------------------

 NO OUTPUT CONTROL FOR STRESS PERIOD   34   TIME STEP   24
 
 WELLS WITH REDUCED PUMPING FOR STRESS PERIOD    34 TIME STEP    24
   LAY   ROW   COL         APPL.Q          ACT.Q        GW-HEAD       CELL-BOT
     1     3    50  -0.125999E+01  -0.374647E+00   0.404700E+01   0.000000E+00
     1     5    55  -0.125999E+01  -0.289928E+00   0.345296E+01   0.000000E+00
 
 
 SOLVING FOR HEAD 
                                                   Max.-Head-Change                         Max.-Flux-Residual
  Residual-Control   Outer-Iter.   Inner-Iter.     Column Row Layer    Maximum-Head-Change  Column Row Layer    Maximum-Flux-Residual          L2-NORM 
          0                 1           3             1    1     1      -0.5663775611E-01       1    7    1        -0.1202992508E-02      0.2114493664E-01
          0                 2           2             1    1     1       0.5232484453E-02       1    7    1         0.1202938041E-03      0.2051264057E-02
          0                 3           2             1    1     1      -0.4341005893E-03       1    7    1        -0.1082699054E-04      0.1890936040E-03
          0                 4           1             1    1     1       0.3191589048E-04       1    4    1        -0.8835039189E-06      0.1611108984E-04
          0                 5           1             1    1     1      -0.1988717287E-05       7    4    1         0.9246978294E-07      0.1200035214E-05
          0                 6           1             1    1     1       0.1065700126E-06       2    4    1        -0.7219046694E-08      0.7738533730E-07

    ------------------------------------------------
       NWT REQUIRED            6 OUTER ITERATIONS 
       AND A TOTAL OF         10 INNER ITERATIONS.
    ------------------------------------------------

 NO OUTPUT CONTROL FOR STRESS PERIOD   34   TIME STEP   25
 
 WELLS WITH REDUCED PUMPING FOR STRESS PERIOD    34 TIME STEP    25
   LAY   ROW   COL         APPL.Q          ACT.Q        GW-HEAD       CELL-BOT
     1     3    50  -0.126001E+01  -0.373993E+00   0.404276E+01   0.000000E+00
     1     5    55  -0.126001E+01  -0.289320E+00   0.344877E+01   0.000000E+00
 
 
 SOLVING FOR HEAD 
                                                   Max.-Head-Change                         Max.-Flux-Residual
  Residual-Control   Outer-Iter.   Inner-Iter.     Column Row Layer    Maximum-Head-Change  Column Row Layer    Maximum-Flux-Residual          L2-NORM 
          0                 1           3             1    1     1      -0.6222164655E-01       1    7    1        -0.1201726215E-02      0.2110252177E-01
          0                 2           2             1    1     1       0.5739733954E-02       1    7    1         0.1201664854E-03      0.2046878912E-02
          0                 3           2             1    1     1      -0.4752358468E-03       1    7    1        -0.1081559764E-04      0.1886965689E-03
          0                 4           1             1    1     1       0.3482635610E-04       1    4    1        -0.8886374978E-06      0.1609165744E-04
          0                 5           1             1    1     1      -0.2137031865E-05       9    4    1         0.9388678635E-07      0.1193693563E-05
          0                 6           1             1    1     1       0.1126767370E-06       9    4    1        -0.7273442293E-08      0.7677629275E-07

    ------------------------------------------------
       NWT REQUIRED            6 OUTER ITERATIONS 
       AND A TOTAL OF         10 INNER ITERATIONS.
    ------------------------------------------------

 NO OUTPUT CONTROL FOR STRESS PERIOD   34   TIME STEP   26
 
 WELLS WITH REDUCED PUMPING FOR STRESS PERIOD    34 TIME STEP    26
   LAY   ROW   COL         APPL.Q          ACT.Q        GW-HEAD       CELL-BOT
     1     3    50  -0.126001E+01  -0.373286E+00   0.403823E+01   0.000000E+00
     1     5    55  -0.126001E+01  -0.288665E+00   0.344429E+01   0.000000E+00
 
 
 SOLVING FOR HEAD 
                                                   Max.-Head-Change                         Max.-Flux-Residual
  Residual-Control   Outer-Iter.   Inner-Iter.     Column Row Layer    Maximum-Head-Change  Column Row Layer    Maximum-Flux-Residual          L2-NORM 
          0                 1           3             1    1     1      -0.6835531432E-01       1    7    1        -0.1200336013E-02      0.2107171475E-01
          0                 2           2             1    1     1       0.6298093358E-02       1    7    1         0.1200267904E-03      0.2042619097E-02
          0                 3           2             1    1     1      -0.5205879664E-03       1    7    1        -0.1080309519E-04      0.1882426632E-03
          0                 4           1             1    1     1       0.3802950470E-04       1    4    1        -0.8938112188E-06      0.1606314132E-04
          0                 5           1             1    1     1      -0.2290436640E-05       9    4    1         0.9467338202E-07      0.1184352725E-05
          0                 6           1             1    1     1       0.1184069830E-06       9    4    1        -0.7309559180E-08      0.7587622088E-07

    ------------------------------------------------
       NWT REQUIRED            6 OUTER ITERATIONS 
       AND A TOTAL OF         10 INNER ITERATIONS.
    ------------------------------------------------

 NO OUTPUT CONTROL FOR STRESS PERIOD   34   TIME STEP   27
 
 WELLS WITH REDUCED PUMPING FOR STRESS PERIOD    34 TIME STEP    27
   LAY   ROW   COL         APPL.Q          ACT.Q        GW-HEAD       CELL-BOT
     1     3    50  -0.126000E+01  -0.372449E+00   0.403286E+01   0.000000E+00
     1     5    55  -0.126000E+01  -0.287893E+00   0.343899E+01   0.000000E+00
 
 
 SOLVING FOR HEAD 
                                                   Max.-Head-Change                         Max.-Flux-Residual
  Residual-Control   Outer-Iter.   Inner-Iter.     Column Row Layer    Maximum-Head-Change  Column Row Layer    Maximum-Flux-Residual          L2-NORM 
          0                 1           3             2    4     1      -0.7573508574E-01       1    7    1        -0.1198901522E-02      0.2108844084E-01
          0                 2           2             1    1     1       0.6973435957E-02       1    7    1         0.1198909961E-03      0.2040056863E-02
          0                 3           2             2    1     1      -0.5761314450E-03       1    7    1        -0.1079087688E-04      0.1875479294E-03
          0                 4           1             3    1     1       0.4199695995E-04      28    4    1        -0.8882529521E-06      0.1598696866E-04
          0                 5           1             1    1     1      -0.2473340032E-05      28    4    1         0.9115944621E-07      0.1167803397E-05
          0                 6           1             1    1     1       0.1247662363E-06       9    4    1        -0.7087614051E-08      0.7440014847E-07

    ------------------------------------------------
       NWT REQUIRED            6 OUTER ITERATIONS 
       AND A TOTAL OF         10 INNER ITERATIONS.
    ------------------------------------------------

 NO OUTPUT CONTROL FOR STRESS PERIOD   34   TIME STEP   28
 
 WELLS WITH REDUCED PUMPING FOR STRESS PERIOD    34 TIME STEP    28
   LAY   ROW   COL         APPL.Q          ACT.Q        GW-HEAD       CELL-BOT
     1     3    50  -0.125998E+01  -0.371579E+00   0.402731E+01   0.000000E+00
     1     5    55  -0.125998E+01  -0.287096E+00   0.343356E+01   0.000000E+00
 
 
 SOLVING FOR HEAD 
                                                   Max.-Head-Change                         Max.-Flux-Residual
  Residual-Control   Outer-Iter.   Inner-Iter.     Column Row Layer    Maximum-Head-Change  Column Row Layer    Maximum-Flux-Residual          L2-NORM 
          0                 1           3             1    4     1      -0.8451970114E-01       2    3    1        -0.1209626147E-02      0.2118651625E-01
          0                 2           2             1    1     1       0.7770228579E-02       2    3    1         0.1209690827E-03      0.2044875276E-02
          0                 3           2             1    1     1      -0.6423237139E-03       4    3    1        -0.1089426738E-04      0.1873784686E-03
          0                 4           1             3    1     1       0.4675690132E-04      30    4    1        -0.8824158648E-06      0.1593567871E-04
          0                 5           1             1    1     1      -0.2683101053E-05       9    4    1         0.9124021361E-07      0.1150126578E-05
          0                 6           1             1    1     1       0.1314648682E-06       9    4    1        -0.7109221656E-08      0.7279260220E-07

    ------------------------------------------------
       NWT REQUIRED            6 OUTER ITERATIONS 
       AND A TOTAL OF         10 INNER ITERATIONS.
    ------------------------------------------------

 NO OUTPUT CONTROL FOR STRESS PERIOD   34   TIME STEP   29
 
 WELLS WITH REDUCED PUMPING FOR STRESS PERIOD    34 TIME STEP    29
   LAY   ROW   COL         APPL.Q          ACT.Q        GW-HEAD       CELL-BOT
     1     3    50  -0.126001E+01  -0.370652E+00   0.402127E+01   0.000000E+00
     1     5    55  -0.126001E+01  -0.286255E+00   0.342772E+01   0.000000E+00
 
 
 SOLVING FOR HEAD 
                                                   Max.-Head-Change                         Max.-Flux-Residual
  Residual-Control   Outer-Iter.   Inner-Iter.     Column Row Layer    Maximum-Head-Change  Column Row Layer    Maximum-Flux-Residual          L2-NORM 
          0                 1           3             1    4     1      -0.9386171188E-01       1    5    1        -0.1225479071E-02      0.2131832853E-01
          0                 2           2             3    1     1       0.8648102693E-02       1    5    1         0.1225517094E-03      0.2056469177E-02
          0                 3           2             4    1     1      -0.7163327216E-03       4    3    1        -0.1104388137E-04      0.1879956028E-03
          0                 4           1             4    1     1       0.5211357342E-04       4    3    1         0.8862104615E-06      0.1595032615E-04
          0                 5           1             3    1     1      -0.2888447763E-05      11    4    1         0.9069626827E-07      0.1134250282E-05
          0                 6           1             1    1     1       0.1363990687E-06       9    4    1        -0.7028688742E-08      0.7127151502E-07

    ------------------------------------------------
       NWT REQUIRED            6 OUTER ITERATIONS 
       AND A TOTAL OF         10 INNER ITERATIONS.
    ------------------------------------------------

 NO OUTPUT CONTROL FOR STRESS PERIOD   34   TIME STEP   30
 
 WELLS WITH REDUCED PUMPING FOR STRESS PERIOD    34 TIME STEP    30
   LAY   ROW   COL         APPL.Q          ACT.Q        GW-HEAD       CELL-BOT
     1     3    50  -0.125998E+01  -0.369643E+00   0.401485E+01   0.000000E+00
     1     5    55  -0.125998E+01  -0.285345E+00   0.342151E+01   0.000000E+00
 



 STREAM LISTING     PERIOD     34   STEP       30

 LAYER ROW COL. STREAM  RCH.   FLOW INTO    STREAM     FLOW OUT OF   OVRLND.    DIRECT     STREAM      STREAM      STREAM     STREAM  STREAMBED   FLOW TO   CHNG. UNSAT. 
                SEG.NO.  NO.   STRM. RCH.    LOSS       STRM. RCH.   RUNOFF     PRECIP       ET         HEAD        DEPTH      WIDTH  CONDCTNC.   WAT. TAB.

   1    4    1     1     1    3.5000E-01  3.6684E-04   3.4963E-01  0.000E+00  0.000E+00  0.000E+00  1.40308E+02  4.578E-01  2.360E+00  3.830E-04  6.346E-04 -2.678E-04
   1    4    2     1     2    3.4963E-01  3.6669E-04   3.4927E-01  0.000E+00  0.000E+00  0.000E+00  1.40008E+02  4.576E-01  2.360E+00  3.829E-04  6.306E-04 -2.639E-04
   1    4    3     1     3    3.4927E-01  3.6655E-04   3.4890E-01  0.000E+00  0.000E+00  0.000E+00  1.39707E+02  4.574E-01  2.360E+00  3.829E-04  6.272E-04 -2.607E-04
   1    4    4     1     4    3.4890E-01  3.6641E-04   3.4853E-01  0.000E+00  0.000E+00  0.000E+00  1.39407E+02  4.572E-01  2.359E+00  3.828E-04  6.224E-04 -2.559E-04
   1    4    5     1     5    3.4853E-01  3.6627E-04   3.4817E-01  0.000E+00  0.000E+00  0.000E+00  1.39107E+02  4.570E-01  2.359E+00  3.827E-04  6.183E-04 -2.520E-04
   1    4    6     1     6    3.4817E-01  3.6613E-04   3.4780E-01  0.000E+00  0.000E+00  0.000E+00  1.38807E+02  4.568E-01  2.359E+00  3.827E-04  6.157E-04 -2.496E-04
   1    4    7     1     7    3.4780E-01  3.6599E-04   3.4744E-01  0.000E+00  0.000E+00  0.000E+00  1.38507E+02  4.566E-01  2.359E+00  3.826E-04  6.147E-04 -2.487E-04
   1    4    8     1     8    3.4744E-01  3.6585E-04   3.4707E-01  0.000E+00  0.000E+00  0.000E+00  1.38206E+02  4.564E-01  2.359E+00  3.825E-04  6.153E-04 -2.494E-04
   1    4    9     1     9    3.4707E-01  3.6571E-04   3.4670E-01  0.000E+00  0.000E+00  0.000E+00  1.37906E+02  4.562E-01  2.358E+00  3.825E-04  6.174E-04 -2.517E-04
   1    4   10     1    10    3.4670E-01  3.6557E-04   3.4634E-01  0.000E+00  0.000E+00  0.000E+00  1.37606E+02  4.560E-01  2.358E+00  3.824E-04  6.210E-04 -2.555E-04
   1    4   11     1    11    3.4634E-01  3.6543E-04   3.4597E-01  0.000E+00  0.000E+00  0.000E+00  1.37306E+02  4.558E-01  2.358E+00  3.823E-04  6.230E-04 -2.576E-04
   1    4   12     1    12    3.4597E-01  3.6529E-04   3.4561E-01  0.000E+00  0.000E+00  0.000E+00  1.37006E+02  4.556E-01  2.358E+00  3.823E-04  6.254E-04 -2.601E-04
   1    4   13     1    13    3.4561E-01  3.6515E-04   3.4524E-01  0.000E+00  0.000E+00  0.000E+00  1.36705E+02  4.554E-01  2.357E+00  3.822E-04  6.285E-04 -2.633E-04
   1    4   14     1    14    3.4524E-01  3.6501E-04   3.4488E-01  0.000E+00  0.000E+00  0.000E+00  1.36405E+02  4.552E-01  2.357E+00  3.821E-04  6.323E-04 -2.673E-04
   1    4   15     1    15    3.4488E-01  3.6487E-04   3.4451E-01  0.000E+00  0.000E+00  0.000E+00  1.36105E+02  4.550E-01  2.357E+00  3.821E-04  6.367E-04 -2.718E-04
   1    4   16     1    16    3.4451E-01  3.6473E-04   3.4415E-01  0.000E+00  0.000E+00  0.000E+00  1.35805E+02  4.548E-01  2.357E+00  3.820E-04  6.419E-04 -2.772E-04
   1    4   17     1    17    3.4415E-01  3.6459E-04   3.4378E-01  0.000E+00  0.000E+00  0.000E+00  1.35505E+02  4.546E-01  2.356E+00  3.819E-04  6.478E-04 -2.832E-04
   1    4   18     1    18    3.4378E-01  3.6445E-04   3.4342E-01  0.000E+00  0.000E+00  0.000E+00  1.35204E+02  4.544E-01  2.356E+00  3.819E-04  6.596E-04 -2.951E-04
   1    4   19     1    19    3.4342E-01  3.6431E-04   3.4305E-01  0.000E+00  0.000E+00  0.000E+00  1.34904E+02  4.542E-01  2.356E+00  3.818E-04  6.732E-04 -3.089E-04
   1    4   20     1    20    3.4305E-01  3.6417E-04   3.4269E-01  0.000E+00  0.000E+00  0.000E+00  1.34604E+02  4.540E-01  2.356E+00  3.817E-04  6.850E-04 -3.208E-04
   1    4   21     1    21    3.4269E-01  3.6403E-04   3.4233E-01  0.000E+00  0.000E+00  0.000E+00  1.34304E+02  4.538E-01  2.355E+00  3.817E-04  6.927E-04 -3.286E-04
   1    4   22     1    22    3.4233E-01  3.6389E-04   3.4196E-01  0.000E+00  0.000E+00  0.000E+00  1.34004E+02  4.535E-01  2.355E+00  3.816E-04  7.010E-04 -3.371E-04
   1    4   23     1    23    3.4196E-01  3.6375E-04   3.4160E-01  0.000E+00  0.000E+00  0.000E+00  1.33703E+02  4.533E-01  2.355E+00  3.815E-04  7.120E-04 -3.482E-04
   1    4   24     1    24    3.4160E-01  3.6361E-04   3.4123E-01  0.000E+00  0.000E+00  0.000E+00  1.33403E+02  4.531E-01  2.355E+00  3.815E-04  7.298E-04 -3.662E-04
   1    4   25     1    25    3.4123E-01  3.6347E-04   3.4087E-01  0.000E+00  0.000E+00  0.000E+00  1.33103E+02  4.529E-01  2.354E+00  3.814E-04  7.490E-04 -3.855E-04
   1    4   26     1    26    3.4087E-01  3.6333E-04   3.4051E-01  0.000E+00  0.000E+00  0.000E+00  1.32803E+02  4.527E-01  2.354E+00  3.814E-04  7.622E-04 -3.989E-04
   1    4   27     1    27    3.4051E-01  3.6319E-04   3.4014E-01  0.000E+00  0.000E+00  0.000E+00  1.32503E+02  4.525E-01  2.354E+00  3.813E-04  7.796E-04 -4.164E-04
   1    4   28     1    28    3.4014E-01  3.6305E-04   3.3978E-01  0.000E+00  0.000E+00  0.000E+00  1.32202E+02  4.523E-01  2.354E+00  3.812E-04  7.990E-04 -4.360E-04
   1    4   29     1    29    3.3978E-01  3.6291E-04   3.3942E-01  0.000E+00  0.000E+00  0.000E+00  1.31902E+02  4.521E-01  2.353E+00  3.812E-04  8.242E-04 -4.613E-04
   1    4   30     1    30    3.3942E-01  3.6277E-04   3.3906E-01  0.000E+00  0.000E+00  0.000E+00  1.31602E+02  4.519E-01  2.353E+00  3.811E-04  8.430E-04 -4.802E-04
   1    4   31     1    31    3.3906E-01  3.6263E-04   3.3869E-01  0.000E+00  0.000E+00  0.000E+00  1.31302E+02  4.517E-01  2.353E+00  3.810E-04  8.666E-04 -5.040E-04
   1    4   32     1    32    3.3869E-01  3.6249E-04   3.3833E-01  0.000E+00  0.000E+00  0.000E+00  1.31002E+02  4.515E-01  2.353E+00  3.810E-04  8.861E-04 -5.237E-04
   1    4   33     1    33    3.3833E-01  3.6235E-04   3.3797E-01  0.000E+00  0.000E+00  0.000E+00  1.30701E+02  4.513E-01  2.352E+00  3.809E-04  9.013E-04 -5.390E-04
   1    4   34     1    34    3.3797E-01  3.6221E-04   3.3761E-01  0.000E+00  0.000E+00  0.000E+00  1.30401E+02  4.511E-01  2.352E+00  3.808E-04  8.856E-04 -5.235E-04
   1    4   35     1    35    3.3761E-01  3.6207E-04   3.3724E-01  0.000E+00  0.000E+00  0.000E+00  1.30101E+02  4.509E-01  2.352E+00  3.808E-04  8.775E-04 -5.155E-04
   1    4   36     1    36    3.3724E-01  3.6193E-04   3.3688E-01  0.000E+00  0.000E+00  0.000E+00  1.29801E+02  4.507E-01  2.352E+00  3.807E-04  8.781E-04 -5.163E-04
   1    4   37     1    37    3.3688E-01  3.6179E-04   3.3652E-01  0.000E+00  0.000E+00  0.000E+00  1.29501E+02  4.505E-01  2.352E+00  3.806E-04  8.861E-04 -5.244E-04
   1    4   38     1    38    3.3652E-01  3.6165E-04   3.3616E-01  0.000E+00  0.000E+00  0.000E+00  1.29200E+02  4.503E-01  2.351E+00  3.806E-04  8.982E-04 -5.367E-04
   1    4   39     1    39    3.3616E-01  3.6151E-04   3.3580E-01  0.000E+00  0.000E+00  0.000E+00  1.28900E+02  4.501E-01  2.351E+00  3.805E-04  8.992E-04 -5.378E-04
   1    4   40     1    40    3.3580E-01  3.6137E-04   3.3544E-01  0.000E+00  0.000E+00  0.000E+00  1.28600E+02  4.499E-01  2.351E+00  3.804E-04  9.003E-04 -5.390E-04
   1    4   41     1    41    3.3544E-01  3.6123E-04   3.3507E-01  0.000E+00  0.000E+00  0.000E+00  1.28300E+02  4.497E-01  2.351E+00  3.804E-04  9.016E-04 -5.404E-04
   1    4   42     1    42    3.3507E-01  3.6109E-04   3.3471E-01  0.000E+00  0.000E+00  0.000E+00  1.28000E+02  4.495E-01  2.350E+00  3.803E-04  9.030E-04 -5.420E-04
   1    4   43     1    43    3.3471E-01  3.6095E-04   3.3435E-01  0.000E+00  0.000E+00  0.000E+00  1.27699E+02  4.493E-01  2.350E+00  3.802E-04  9.047E-04 -5.438E-04
   1    4   44     1    44    3.3435E-01  3.6081E-04   3.3399E-01  0.000E+00  0.000E+00  0.000E+00  1.27399E+02  4.491E-01  2.350E+00  3.802E-04  9.363E-04 -5.756E-04
   1    4   45     1    45    3.3399E-01  3.6067E-04   3.3363E-01  0.000E+00  0.000E+00  0.000E+00  1.27099E+02  4.489E-01  2.350E+00  3.801E-04  9.387E-04 -5.782E-04
   1    4   46     1    46    3.3363E-01  3.6053E-04   3.3327E-01  0.000E+00  0.000E+00  0.000E+00  1.26799E+02  4.487E-01  2.349E+00  3.800E-04  9.417E-04 -5.812E-04
   1    4   47     1    47    3.3327E-01  3.6039E-04   3.3291E-01  0.000E+00  0.000E+00  0.000E+00  1.26498E+02  4.485E-01  2.349E+00  3.800E-04  9.452E-04 -5.849E-04
   1    4   48     1    48    3.3291E-01  3.6025E-04   3.3255E-01  0.000E+00  0.000E+00  0.000E+00  1.26198E+02  4.483E-01  2.349E+00  3.799E-04  9.495E-04 -5.894E-04
   1    4   49     1    49    3.3255E-01  3.6012E-04   3.3219E-01  0.000E+00  0.000E+00  0.000E+00  1.25898E+02  4.481E-01  2.349E+00  3.798E-04  1.022E-03 -6.623E-04
   1    4   50     1    50    3.3219E-01  3.5998E-04   3.3183E-01  0.000E+00  0.000E+00  0.000E+00  1.25598E+02  4.479E-01  2.348E+00  3.798E-04  1.032E-03 -6.721E-04
   1    4   51     1    51    3.3183E-01  3.5984E-04   3.3147E-01  0.000E+00  0.000E+00  0.000E+00  1.25298E+02  4.477E-01  2.348E+00  3.797E-04  1.027E-03 -6.669E-04
   1    4   52     1    52    3.3147E-01  3.5970E-04   3.3111E-01  0.000E+00  0.000E+00  0.000E+00  1.24997E+02  4.475E-01  2.348E+00  3.796E-04  1.024E-03 -6.639E-04
   1    4   53     1    53    3.3111E-01  3.5956E-04   3.3075E-01  0.000E+00  0.000E+00  0.000E+00  1.24697E+02  4.473E-01  2.348E+00  3.796E-04  1.023E-03 -6.633E-04
   1    4   54     1    54    3.3075E-01  3.5942E-04   3.3039E-01  0.000E+00  0.000E+00  0.000E+00  1.24397E+02  4.471E-01  2.347E+00  3.795E-04  1.025E-03 -6.654E-04
   1    4   55     1    55    3.3039E-01  3.5928E-04   3.3003E-01  0.000E+00  0.000E+00  0.000E+00  1.24097E+02  4.469E-01  2.347E+00  3.794E-04  1.030E-03 -6.707E-04
   1    4   56     1    56    3.3003E-01  3.5914E-04   3.2967E-01  0.000E+00  0.000E+00  0.000E+00  1.23797E+02  4.467E-01  2.347E+00  3.794E-04  1.019E-03 -6.604E-04
   1    4   57     1    57    3.2967E-01  3.5900E-04   3.2931E-01  0.000E+00  0.000E+00  0.000E+00  1.23496E+02  4.465E-01  2.347E+00  3.793E-04  9.660E-04 -6.071E-04
   1    4   58     1    58    3.2931E-01  3.5886E-04   3.2896E-01  0.000E+00  0.000E+00  0.000E+00  1.23196E+02  4.463E-01  2.346E+00  3.792E-04  9.415E-04 -5.828E-04
   1    4   59     1    59    3.2896E-01  3.5872E-04   3.2860E-01  0.000E+00  0.000E+00  0.000E+00  1.22896E+02  4.461E-01  2.346E+00  3.792E-04  9.377E-04 -5.791E-04
   1    4   60     1    60    3.2860E-01  3.5858E-04   3.2824E-01  0.000E+00  0.000E+00  0.000E+00  1.22596E+02  4.459E-01  2.346E+00  3.791E-04  9.345E-04 -5.761E-04
   1    4   61     1    61    3.2824E-01  3.5844E-04   3.2788E-01  0.000E+00  0.000E+00  0.000E+00  1.22296E+02  4.457E-01  2.346E+00  3.790E-04  9.319E-04 -5.736E-04
   1    4   62     1    62    3.2788E-01  3.5830E-04   3.2752E-01  0.000E+00  0.000E+00  0.000E+00  1.21995E+02  4.455E-01  2.345E+00  3.790E-04  9.297E-04 -5.715E-04
   1    4   63     1    63    3.2752E-01  3.5816E-04   3.2716E-01  0.000E+00  0.000E+00  0.000E+00  1.21695E+02  4.453E-01  2.345E+00  3.789E-04  9.278E-04 -5.697E-04
   1    4   64     1    64    3.2716E-01  3.5803E-04   3.2680E-01  0.000E+00  0.000E+00  0.000E+00  1.21395E+02  4.451E-01  2.345E+00  3.788E-04  8.984E-04 -5.405E-04
   1    4   65     1    65    3.2680E-01  3.5789E-04   3.2645E-01  0.000E+00  0.000E+00  0.000E+00  1.21095E+02  4.448E-01  2.345E+00  3.788E-04  8.972E-04 -5.394E-04
   1    4   66     1    66    3.2645E-01  3.5775E-04   3.2609E-01  0.000E+00  0.000E+00  0.000E+00  1.20795E+02  4.446E-01  2.344E+00  3.787E-04  8.962E-04 -5.386E-04
   1    4   67     1    67    3.2609E-01  3.5761E-04   3.2573E-01  0.000E+00  0.000E+00  0.000E+00  1.20494E+02  4.444E-01  2.344E+00  3.786E-04  8.954E-04 -5.379E-04
   1    4   68     1    68    3.2573E-01  3.5747E-04   3.2537E-01  0.000E+00  0.000E+00  0.000E+00  1.20194E+02  4.442E-01  2.344E+00  3.786E-04  8.947E-04 -5.373E-04
   1    4   69     1    69    3.2537E-01  3.5733E-04   3.2502E-01  0.000E+00  0.000E+00  0.000E+00  1.19894E+02  4.440E-01  2.344E+00  3.785E-04  8.754E-04 -5.182E-04
   1    4   70     1    70    3.2502E-01  3.5719E-04   3.2466E-01  0.000E+00  0.000E+00  0.000E+00  1.19594E+02  4.438E-01  2.344E+00  3.784E-04  8.750E-04 -5.179E-04
   1    4   71     1    71    3.2466E-01  3.5705E-04   3.2430E-01  0.000E+00  0.000E+00  0.000E+00  1.19294E+02  4.436E-01  2.343E+00  3.784E-04  8.729E-04 -5.160E-04
   1    4   72     1    72    3.2430E-01  3.5691E-04   3.2395E-01  0.000E+00  0.000E+00  0.000E+00  1.18993E+02  4.434E-01  2.343E+00  3.783E-04  8.634E-04 -5.066E-04
   1    4   73     1    73    3.2395E-01  3.5677E-04   3.2359E-01  0.000E+00  0.000E+00  0.000E+00  1.18693E+02  4.432E-01  2.343E+00  3.782E-04  8.816E-04 -5.249E-04
   1    4   74     1    74    3.2359E-01  3.5664E-04   3.2323E-01  0.000E+00  0.000E+00  0.000E+00  1.18393E+02  4.430E-01  2.343E+00  3.782E-04  8.563E-04 -4.997E-04
   1    4   75     1    75    3.2323E-01  3.5650E-04   3.2288E-01  0.000E+00  0.000E+00  0.000E+00  1.18093E+02  4.428E-01  2.342E+00  3.781E-04  8.303E-04 -4.738E-04
   1    4   76     1    76    3.2288E-01  3.5636E-04   3.2252E-01  0.000E+00  0.000E+00  0.000E+00  1.17793E+02  4.426E-01  2.342E+00  3.780E-04  8.014E-04 -4.450E-04
   1    4   77     1    77    3.2252E-01  3.5622E-04   3.2216E-01  0.000E+00  0.000E+00  0.000E+00  1.17492E+02  4.424E-01  2.342E+00  3.780E-04  7.763E-04 -4.200E-04
   1    4   78     1    78    3.2216E-01  3.5608E-04   3.2181E-01  0.000E+00  0.000E+00  0.000E+00  1.17192E+02  4.422E-01  2.342E+00  3.779E-04  7.579E-04 -4.019E-04
   1    4   79     1    79    3.2181E-01  3.5594E-04   3.2145E-01  0.000E+00  0.000E+00  0.000E+00  1.16892E+02  4.420E-01  2.341E+00  3.779E-04  7.300E-04 -3.740E-04
   1    4   80     1    80    3.2145E-01  3.5580E-04   3.2110E-01  0.000E+00  0.000E+00  0.000E+00  1.16592E+02  4.418E-01  2.341E+00  3.778E-04  7.073E-04 -3.515E-04
   1    4   81     1    81    3.2110E-01  3.5566E-04   3.2074E-01  0.000E+00  0.000E+00  0.000E+00  1.16292E+02  4.416E-01  2.341E+00  3.777E-04  6.937E-04 -3.380E-04
   1    4   82     1    82    3.2074E-01  3.5552E-04   3.2038E-01  0.000E+00  0.000E+00  0.000E+00  1.15991E+02  4.414E-01  2.341E+00  3.777E-04  6.715E-04 -3.160E-04
   1    4   83     1    83    3.2038E-01  3.5539E-04   3.2003E-01  0.000E+00  0.000E+00  0.000E+00  1.15691E+02  4.412E-01  2.340E+00  3.776E-04  6.495E-04 -2.941E-04
   1    4   84     1    84    3.2003E-01  3.5525E-04   3.1967E-01  0.000E+00  0.000E+00  0.000E+00  1.15391E+02  4.410E-01  2.340E+00  3.775E-04  6.357E-04 -2.805E-04
   1    4   85     1    85    3.1967E-01  3.5511E-04   3.1932E-01  0.000E+00  0.000E+00  0.000E+00  1.15091E+02  4.408E-01  2.340E+00  3.775E-04  6.225E-04 -2.674E-04
   1    4   86     1    86    3.1932E-01  3.5497E-04   3.1896E-01  0.000E+00  0.000E+00  0.000E+00  1.14791E+02  4.406E-01  2.340E+00  3.774E-04  6.071E-04 -2.522E-04
   1    4   87     1    87    3.1896E-01  3.5483E-04   3.1861E-01  0.000E+00  0.000E+00  0.000E+00  1.14490E+02  4.404E-01  2.339E+00  3.773E-04  5.893E-04 -2.344E-04
   1    4   88     1    88    3.1861E-01  3.5469E-04   3.1825E-01  0.000E+00  0.000E+00  0.000E+00  1.14190E+02  4.402E-01  2.339E+00  3.773E-04  5.724E-04 -2.177E-04
   1    4   89     1    89    3.1825E-01  3.5455E-04   3.1790E-01  0.000E+00  0.000E+00  0.000E+00  1.13890E+02  4.400E-01  2.339E+00  3.772E-04  5.435E-04 -1.889E-04
   1    4   90     1    90    3.1790E-01  3.5442E-04   3.1755E-01  0.000E+00  0.000E+00  0.000E+00  1.13590E+02  4.398E-01  2.339E+00  3.771E-04  5.302E-04 -1.758E-04
   1    4   91     1    91    3.1755E-01  3.5428E-04   3.1719E-01  0.000E+00  0.000E+00  0.000E+00  1.13290E+02  4.396E-01  2.338E+00  3.771E-04  5.188E-04 -1.645E-04
   1    4   92     1    92    3.1719E-01  3.5414E-04   3.1684E-01  0.000E+00  0.000E+00  0.000E+00  1.12989E+02  4.394E-01  2.338E+00  3.770E-04  5.116E-04 -1.574E-04
   1    4   93     1    93    3.1684E-01  3.5400E-04   3.1648E-01  0.000E+00  0.000E+00  0.000E+00  1.12689E+02  4.392E-01  2.338E+00  3.769E-04  4.996E-04 -1.456E-04
   1    4   94     1    94    3.1648E-01  3.5386E-04   3.1613E-01  0.000E+00  0.000E+00  0.000E+00  1.12389E+02  4.390E-01  2.338E+00  3.769E-04  4.881E-04 -1.343E-04
   1    4   95     1    95    3.1613E-01  3.5372E-04   3.1578E-01  0.000E+00  0.000E+00  0.000E+00  1.12089E+02  4.388E-01  2.337E+00  3.768E-04  4.771E-04 -1.234E-04
   1    4   96     1    96    3.1578E-01  3.5358E-04   3.1542E-01  0.000E+00  0.000E+00  0.000E+00  1.11789E+02  4.386E-01  2.337E+00  3.767E-04  4.666E-04 -1.130E-04
   1    4   97     1    97    3.1542E-01  3.5345E-04   3.1507E-01  0.000E+00  0.000E+00  0.000E+00  1.11488E+02  4.384E-01  2.337E+00  3.767E-04  4.566E-04 -1.031E-04
   1    4   98     1    98    3.1507E-01  3.5331E-04   3.1471E-01  0.000E+00  0.000E+00  0.000E+00  1.11188E+02  4.382E-01  2.337E+00  3.766E-04  4.577E-04 -1.043E-04
   1    4   99     1    99    3.1471E-01  3.5317E-04   3.1436E-01  0.000E+00  0.000E+00  0.000E+00  1.10888E+02  4.380E-01  2.336E+00  3.765E-04  4.542E-04 -1.010E-04
   1    4  100     1   100    3.1436E-01  3.5303E-04   3.1401E-01  0.000E+00  0.000E+00  0.000E+00  1.10588E+02  4.378E-01  2.336E+00  3.765E-04  4.441E-04 -9.106E-05



1
  VOLUMETRIC BUDGET FOR UNSATURATED ZONE BENEATH STREAMS AT END OF TIME STEP    30 STRESS PERIOD  34
  ------------------------------------------------------------------------------------------------

    CUMULATIVE VOLUMES             L**3    RATES FOR THIS TIME STEP         L**3/T
    ------------------                     ------------------------


          STREAM LOSS =     30172960.0000            STREAM LOSS =        3.5992E-02
    CHANGE IN STORAGE =      1094631.0000      CHANGE IN STORAGE =       -4.0545E-02
       RECHARGE TO GW =     29085694.0000         RECHARGE TO GW =        7.6532E-02

             TOTAL IN =     30172960.0000               TOTAL IN =        7.6537E-02

            TOTAL OUT =     30180324.0000              TOTAL OUT =        7.6532E-02

             IN - OUT =        -7364.0000               IN - OUT =        4.5523E-06

  PERCENT DISCREPANCY =           -0.01      PERCENT DISCREPANCY =             0.00



1
  VOLUMETRIC BUDGET FOR ENTIRE MODEL AT END OF TIME STEP   30, STRESS PERIOD  34
  ------------------------------------------------------------------------------

     CUMULATIVE VOLUMES      L**3       RATES FOR THIS TIME STEP      L**3/T
     ------------------                 ------------------------

           IN:                                      IN:
           ---                                      ---
             STORAGE     =   103698504.0000               STORAGE     =           0.5191
       CONSTANT HEAD     =           0.0000         CONSTANT HEAD     =           0.0000
               WELLS     =           0.0000                 WELLS     =           0.0000
     HEAD DEP BOUNDS     =      688307.6250       HEAD DEP BOUNDS     =       5.9347E-02
      STREAM LEAKAGE     =    29085382.0000        STREAM LEAKAGE     =       7.6532E-02

                TOTAL IN =   133472192.0000                  TOTAL IN =           0.6550

          OUT:                                     OUT:
          ----                                     ----
             STORAGE     =     3266784.5000               STORAGE     =           0.0000
       CONSTANT HEAD     =           0.0000         CONSTANT HEAD     =           0.0000
               WELLS     =   113819520.0000                 WELLS     =           0.6550
     HEAD DEP BOUNDS     =    16385952.0000       HEAD DEP BOUNDS     =           0.0000
      STREAM LEAKAGE     =           0.0000        STREAM LEAKAGE     =           0.0000

               TOTAL OUT =   133472256.0000                 TOTAL OUT =           0.6550

                IN - OUT =         -64.0000                  IN - OUT =      -5.9605E-08

     PERCENT DISCREPANCY =          -0.00         PERCENT DISCREPANCY =          -0.00






         TIME SUMMARY AT END OF TIME STEP   30 IN STRESS PERIOD   34
                    SECONDS     MINUTES      HOURS       DAYS        YEARS
                    -----------------------------------------------------------
   TIME STEP LENGTH 2.49961E+05  4166.0      69.434      2.8931     7.92080E-03
 STRESS PERIOD TIME 2.59200E+06  43200.      720.00      30.000     8.21355E-02
         TOTAL TIME 8.81280E+07 1.46880E+06  24480.      1020.0      2.7926    
1
1
                            STRESS PERIOD NO.   35, LENGTH =   2592000.    
                            -----------------------------------------------

                              NUMBER OF TIME STEPS =    30

                               MULTIPLIER FOR DELT =     1.100

                            INITIAL TIME STEP SIZE =   15757.40    

 REUSING NON-PARAMETER WELLS FROM LAST STRESS PERIOD

      1 WELL 

 REUSING NON-PARAMETER GHB CELLS FROM LAST STRESS PERIOD

      7 GHB CELLS



 CLASSIFICATION & COUNT OF STREAM SEGMENTS BASED ON SOURCE OF INFLOW:

                HEADWATER     DIVERSION     RECEIVES TRIBUTARY FLOW
                ---------     ---------     -----------------------
                     1              0               0



                    INPUT DATA FOR EACH STREAM SEGMENT
 ---------------------------------------------------------------------------------------------

 SEGMENT    SEG.     INFLOW   OVERLAND   STREAM    STREAM   ICALC  OUTFLOW  DIVERSION PRIORITY
    NO.    LENGTH     RATE     RUNOFF      ET       PPT.    METH.  TO SEG.  FROM SEG.    NO.

      1  2.000E+04 5.300E-02 0.000E+00 0.000E+00 0.000E+00    2        0        0        0


         STREAMBED PROPERTIES AND STREAM DIMENSIONS

 SEGMENT     BED HYD. COND.      BED THICKNESS     ELEV.-TOP OF BED     WIDTH OF STREAM     DEPTH OF STREAM    STREAM ROUGHNESS
    No.     UPPER     LOWER     UPPER     LOWER     UPPER     LOWER     UPPER     LOWER     UPPER     LOWER   CHANNEL      BANK

     1  3.500E-07 3.500E-07                                                                                 3.000E-02 4.000E-02

  EIGHT POINT CROSS-SECTION DATA FOR SEGMENTS WITH ICALC = 2
    X VALUES X VALUES START FROM LEFT SIDE LOOKING DOWNSTREAM

     SEGMENT NO.        X1        X2        X3        X4        X5        X6        X7        X8
            1      0.000E+00 2.000E+00 4.000E+00 6.000E+00 8.000E+00 1.000E+01 1.200E+01 1.400E+01

    Z VALUES ARE RELATIVE TO STREAMBED ELEVATION

     SEGMENT NO.          Z1        Z2        Z3        Z4        Z5        Z6        Z7        Z8
            1      6.000E+00 4.500E+00 3.500E+00 0.000E+00 3.000E-01 3.500E+00 4.500E+00 6.000E+00



 
 SOLVING FOR HEAD 
                                                   Max.-Head-Change                         Max.-Flux-Residual
  Residual-Control   Outer-Iter.   Inner-Iter.     Column Row Layer    Maximum-Head-Change  Column Row Layer    Maximum-Flux-Residual          L2-NORM 
          0                 1           2            50    3     1       0.4086861907E+00      50    3    1         0.1377480798E+00      0.1753133726E+00
          0                 2           2            50    3     1      -0.4227585691E-01      50    3    1        -0.1464127047E-01      0.1869014883E-01
          0                 3           2            50    3     1       0.3746106513E-02      50    3    1         0.1310262354E-02      0.1672716447E-02
          0                 4           2            50    3     1      -0.2974270484E-03      50    3    1        -0.1050112892E-03      0.1341039604E-03
          0                 5           1            50    3     1       0.2071813929E-04      50    3    1         0.7381819343E-05      0.9428943354E-05
          0                 6           1            50    3     1      -0.1244072784E-05      50    3    1        -0.4473108667E-06      0.5714513348E-06
          0                 7           1            50    3     1       0.6286134534E-07      50    3    1         0.2280841116E-07      0.2914125823E-07

    ------------------------------------------------
       NWT REQUIRED            7 OUTER ITERATIONS 
       AND A TOTAL OF         11 INNER ITERATIONS.
    ------------------------------------------------

 NO OUTPUT CONTROL FOR STRESS PERIOD   35   TIME STEP    1
 
 WELLS WITH REDUCED PUMPING FOR STRESS PERIOD    35 TIME STEP     1
   LAY   ROW   COL         APPL.Q          ACT.Q        GW-HEAD       CELL-BOT
     1     3    50  -0.790130E+00  -0.268482E+00   0.438473E+01   0.000000E+00
     1     5    55  -0.790130E+00  -0.206348E+00   0.371578E+01   0.000000E+00
 
 
 SOLVING FOR HEAD 
                                                   Max.-Head-Change                         Max.-Flux-Residual
  Residual-Control   Outer-Iter.   Inner-Iter.     Column Row Layer    Maximum-Head-Change  Column Row Layer    Maximum-Flux-Residual          L2-NORM 
          0                 1           2            50    3     1       0.2680655378E+00      50    3    1         0.8450476598E-01      0.1104706516E+00
          0                 2           2            50    3     1      -0.2692168179E-01      50    3    1        -0.8767227767E-02      0.1146018477E-01
          0                 3           2            50    3     1       0.2385372133E-02      50    3    1         0.7864675593E-03      0.1028888515E-02
          0                 4           2            50    3     1      -0.1892735412E-03      50    3    1        -0.6301622572E-04      0.8251157290E-04
          0                 5           1            50    3     1       0.1318431650E-04      50    3    1         0.4429853250E-05      0.5804148613E-05
          0                 6           1            50    3     1      -0.7916845316E-06      50    3    1        -0.2684320481E-06      0.3518867244E-06

    ------------------------------------------------
       NWT REQUIRED            6 OUTER ITERATIONS 
       AND A TOTAL OF         10 INNER ITERATIONS.
    ------------------------------------------------

 NO OUTPUT CONTROL FOR STRESS PERIOD   35   TIME STEP    2
 
 WELLS WITH REDUCED PUMPING FOR STRESS PERIOD    35 TIME STEP     2
   LAY   ROW   COL         APPL.Q          ACT.Q        GW-HEAD       CELL-BOT
     1     3    50  -0.790130E+00  -0.293248E+00   0.462808E+01   0.000000E+00
     1     5    55  -0.790130E+00  -0.225500E+00   0.391459E+01   0.000000E+00
 
 
 SOLVING FOR HEAD 
                                                   Max.-Head-Change                         Max.-Flux-Residual
  Residual-Control   Outer-Iter.   Inner-Iter.     Column Row Layer    Maximum-Head-Change  Column Row Layer    Maximum-Flux-Residual          L2-NORM 
          0                 1           2            50    3     1       0.1733992011E+00      50    3    1         0.5062959965E-01      0.7004325213E-01
          0                 2           2            50    3     1      -0.1702286351E-01      50    3    1        -0.5182251412E-02      0.7096843364E-02
          0                 3           2            50    3     1       0.1504773871E-02      50    3    1         0.4654543525E-03      0.6386972529E-03
          0                 4           2            50    3     1      -0.1192983134E-03      50    3    1        -0.3729009171E-04      0.5128388150E-04
          0                 5           1            50    3     1       0.8309450581E-05      50    3    1         0.2621412515E-05      0.3612090512E-05
          0                 6           1            50    3     1      -0.4989607441E-06      50    3    1        -0.1588469921E-06      0.2192100853E-06

    ------------------------------------------------
       NWT REQUIRED            6 OUTER ITERATIONS 
       AND A TOTAL OF         10 INNER ITERATIONS.
    ------------------------------------------------

 NO OUTPUT CONTROL FOR STRESS PERIOD   35   TIME STEP    3
 
 WELLS WITH REDUCED PUMPING FOR STRESS PERIOD    35 TIME STEP     3
   LAY   ROW   COL         APPL.Q          ACT.Q        GW-HEAD       CELL-BOT
     1     3    50  -0.789898E+00  -0.309427E+00   0.478585E+01   0.000000E+00
     1     5    55  -0.789898E+00  -0.238364E+00   0.404626E+01   0.000000E+00
 
 
 SOLVING FOR HEAD 
                                                   Max.-Head-Change                         Max.-Flux-Residual
  Residual-Control   Outer-Iter.   Inner-Iter.     Column Row Layer    Maximum-Head-Change  Column Row Layer    Maximum-Flux-Residual          L2-NORM 
          0                 1           2            50    3     1       0.1110692909E+00      50    3    1         0.2970666881E-01      0.4637936586E-01
          0                 2           2            50    3     1      -0.1067993178E-01      50    3    1        -0.3015900084E-02      0.4586474730E-02
          0                 3           2            50    3     1       0.9399867684E-03      50    3    1         0.2710714680E-03      0.4137299053E-03
          0                 4           1            50    3     1      -0.7442386829E-04      50    3    1        -0.2171545957E-04      0.3332179610E-04
          0                 5           1            50    3     1       0.5182858757E-05      50    3    1         0.1526542445E-05      0.2354305485E-05
          0                 6           1            50    3     1      -0.3112141875E-06      50    3    1        -0.9250152033E-07      0.1432475060E-06

    ------------------------------------------------
       NWT REQUIRED            6 OUTER ITERATIONS 
       AND A TOTAL OF          9 INNER ITERATIONS.
    ------------------------------------------------

 NO OUTPUT CONTROL FOR STRESS PERIOD   35   TIME STEP    4
 
 WELLS WITH REDUCED PUMPING FOR STRESS PERIOD    35 TIME STEP     4
   LAY   ROW   COL         APPL.Q          ACT.Q        GW-HEAD       CELL-BOT
     1     3    50  -0.790109E+00  -0.320025E+00   0.488711E+01   0.000000E+00
     1     5    55  -0.790109E+00  -0.246952E+00   0.413205E+01   0.000000E+00
 
 
 SOLVING FOR HEAD 
                                                   Max.-Head-Change                         Max.-Flux-Residual
  Residual-Control   Outer-Iter.   Inner-Iter.     Column Row Layer    Maximum-Head-Change  Column Row Layer    Maximum-Flux-Residual          L2-NORM 
          0                 1           2            50    3     1       0.7196195836E-01      50    3    1         0.1740347096E-01      0.3396107686E-01
          0                 2           2            50    3     1      -0.6779631351E-02      50    3    1        -0.1757376709E-02      0.3291381673E-02
          0                 3           2            50    3     1       0.5930295019E-03      50    3    1         0.1580252422E-03      0.2975422535E-03
          0                 4           1            50    3     1      -0.4686129099E-04      50    3    1        -0.1265879734E-04      0.2408632004E-04
          0                 5           1            50    3     1       0.3262218356E-05      50    3    1         0.8898720674E-06      0.1711228137E-05
          0                 6           1            50    3     1      -0.1958797756E-06      50    3    1        -0.5392134789E-07      0.1046185030E-06

    ------------------------------------------------
       NWT REQUIRED            6 OUTER ITERATIONS 
       AND A TOTAL OF          9 INNER ITERATIONS.
    ------------------------------------------------

 NO OUTPUT CONTROL FOR STRESS PERIOD   35   TIME STEP    5
 
 WELLS WITH REDUCED PUMPING FOR STRESS PERIOD    35 TIME STEP     5
   LAY   ROW   COL         APPL.Q          ACT.Q        GW-HEAD       CELL-BOT
     1     3    50  -0.790054E+00  -0.326855E+00   0.495284E+01   0.000000E+00
     1     5    55  -0.790054E+00  -0.252545E+00   0.418811E+01   0.000000E+00
 
 
 SOLVING FOR HEAD 
                                                   Max.-Head-Change                         Max.-Flux-Residual
  Residual-Control   Outer-Iter.   Inner-Iter.     Column Row Layer    Maximum-Head-Change  Column Row Layer    Maximum-Flux-Residual          L2-NORM 
          0                 1           2            50    3     1       0.4777164558E-01      50    3    1         0.1029835129E-01      0.2796761817E-01
          0                 2           2            50    3     1      -0.4410193414E-02      50    3    1        -0.1035866362E-02      0.2687539227E-02
          0                 3           2            50    3     1       0.3827845425E-03      50    3    1         0.9317634391E-04      0.2434279547E-03
          0                 4           1            50    2     1      -0.3029618113E-04      50    3    1        -0.7463767650E-05      0.1981839100E-04
          0                 5           1            50    2     1       0.2110216072E-05      50    3    1         0.5246689098E-06      0.1417181556E-05
          0                 6           1            50    2     1      -0.1267109312E-06      50    3    1        -0.3179134206E-07      0.8714681063E-07

    ------------------------------------------------
       NWT REQUIRED            6 OUTER ITERATIONS 
       AND A TOTAL OF          9 INNER ITERATIONS.
    ------------------------------------------------

 NO OUTPUT CONTROL FOR STRESS PERIOD   35   TIME STEP    6
 
 WELLS WITH REDUCED PUMPING FOR STRESS PERIOD    35 TIME STEP     6
   LAY   ROW   COL         APPL.Q          ACT.Q        GW-HEAD       CELL-BOT
     1     3    50  -0.789955E+00  -0.331381E+00   0.499656E+01   0.000000E+00
     1     5    55  -0.789955E+00  -0.256251E+00   0.422531E+01   0.000000E+00
 
 
 SOLVING FOR HEAD 
                                                   Max.-Head-Change                         Max.-Flux-Residual
  Residual-Control   Outer-Iter.   Inner-Iter.     Column Row Layer    Maximum-Head-Change  Column Row Layer    Maximum-Flux-Residual          L2-NORM 
          0                 1           2            50    2     1       0.3968372668E-01      50    3    1         0.6220544752E-02      0.2515756060E-01
          0                 2           2            50    2     1      -0.3909279985E-02      50    3    1        -0.6237948922E-03      0.2418815979E-02
          0                 3           2            50    2     1       0.3475971409E-03      50    3    1         0.5612504560E-04      0.2194228989E-03
          0                 4           1            50    2     1      -0.2756801970E-04      50    3    1        -0.4495711353E-05      0.1794690831E-04
          0                 5           1            50    2     1       0.1920091199E-05      50    3    1         0.3160193902E-06      0.1290580201E-05
          0                 6           1            50    2     1      -0.1152931322E-06      50    3    1        -0.1914800596E-07      0.7978072209E-07

    ------------------------------------------------
       NWT REQUIRED            6 OUTER ITERATIONS 
       AND A TOTAL OF          9 INNER ITERATIONS.
    ------------------------------------------------

 NO OUTPUT CONTROL FOR STRESS PERIOD   35   TIME STEP    7
 
 WELLS WITH REDUCED PUMPING FOR STRESS PERIOD    35 TIME STEP     7
   LAY   ROW   COL         APPL.Q          ACT.Q        GW-HEAD       CELL-BOT
     1     3    50  -0.789909E+00  -0.334512E+00   0.502666E+01   0.000000E+00
     1     5    55  -0.789909E+00  -0.258790E+00   0.425065E+01   0.000000E+00
 
 
 SOLVING FOR HEAD 
                                                   Max.-Head-Change                         Max.-Flux-Residual
  Residual-Control   Outer-Iter.   Inner-Iter.     Column Row Layer    Maximum-Head-Change  Column Row Layer    Maximum-Flux-Residual          L2-NORM 
          0                 1           2            50    2     1       0.3563204217E-01      50    2    1         0.4655095099E-02      0.2377223025E-01
          0                 2           2            50    2     1      -0.3511092956E-02      50    2    1        -0.4669372854E-03      0.2292809324E-02
          0                 3           2            50    2     1       0.3121170029E-03      50    2    1         0.4200913498E-04      0.2082145417E-03
          0                 4           1            50    2     1      -0.2475062113E-04      50    2    1        -0.3365056992E-05      0.1708827264E-04
          0                 5           1            50    2     1       0.1723746754E-05      50    2    1         0.2365594499E-06      0.1234325914E-05
          0                 6           1            50    2     1      -0.1035013229E-06      50    2    1        -0.1433457164E-07      0.7664456133E-07

    ------------------------------------------------
       NWT REQUIRED            6 OUTER ITERATIONS 
       AND A TOTAL OF          9 INNER ITERATIONS.
    ------------------------------------------------

 NO OUTPUT CONTROL FOR STRESS PERIOD   35   TIME STEP    8
 
 WELLS WITH REDUCED PUMPING FOR STRESS PERIOD    35 TIME STEP     8
   LAY   ROW   COL         APPL.Q          ACT.Q        GW-HEAD       CELL-BOT
     1     3    50  -0.789930E+00  -0.336784E+00   0.504827E+01   0.000000E+00
     1     5    55  -0.789930E+00  -0.260604E+00   0.426854E+01   0.000000E+00
 
 
 SOLVING FOR HEAD 
                                                   Max.-Head-Change                         Max.-Flux-Residual
  Residual-Control   Outer-Iter.   Inner-Iter.     Column Row Layer    Maximum-Head-Change  Column Row Layer    Maximum-Flux-Residual          L2-NORM 
          0                 1           2            50    2     1       0.3183554915E-01      50    2    1         0.3799719844E-02      0.2301750242E-01
          0                 2           2            50    2     1      -0.3136828353E-02      50    2    1        -0.3812047806E-03      0.2226003431E-02
          0                 3           2            50    2     1       0.2787817213E-03      50    2    1         0.3429545766E-04      0.2023103992E-03
          0                 4           1            50    2     1      -0.2210356178E-04      50    2    1        -0.2747172517E-05      0.1664800454E-04
          0                 5           1            50    2     1       0.1539261123E-05      50    2    1         0.1931228907E-06      0.1206977445E-05
          0                 6           1            50    2     1      -0.9242091794E-07      50    2    1        -0.1170248748E-07      0.7524381629E-07

    ------------------------------------------------
       NWT REQUIRED            6 OUTER ITERATIONS 
       AND A TOTAL OF          9 INNER ITERATIONS.
    ------------------------------------------------

 NO OUTPUT CONTROL FOR STRESS PERIOD   35   TIME STEP    9
 
 WELLS WITH REDUCED PUMPING FOR STRESS PERIOD    35 TIME STEP     9
   LAY   ROW   COL         APPL.Q          ACT.Q        GW-HEAD       CELL-BOT
     1     3    50  -0.789967E+00  -0.338509E+00   0.506457E+01   0.000000E+00
     1     5    55  -0.789967E+00  -0.261952E+00   0.428175E+01   0.000000E+00
 
 
 SOLVING FOR HEAD 
                                                   Max.-Head-Change                         Max.-Flux-Residual
  Residual-Control   Outer-Iter.   Inner-Iter.     Column Row Layer    Maximum-Head-Change  Column Row Layer    Maximum-Flux-Residual          L2-NORM 
          0                 1           2            50    2     1       0.2847458206E-01      50    2    1         0.3086256263E-02      0.2256627538E-01
          0                 2           2            50    2     1      -0.2804842867E-02      50    2    1        -0.3095898414E-03      0.2185568685E-02
          0                 3           2            50    2     1       0.2492145082E-03      50    2    1         0.2785299508E-04      0.1987410944E-03
          0                 4           1            50    2     1      -0.1975551589E-04      50    2    1        -0.2231107585E-05      0.1639145144E-04
          0                 5           1            50    2     1       0.1375591565E-05      50    2    1         0.1568441764E-06      0.1192418008E-05
          0                 6           1            50    2     1      -0.8258952879E-07      50    2    1        -0.9504139808E-08      0.7461481342E-07

    ------------------------------------------------
       NWT REQUIRED            6 OUTER ITERATIONS 
       AND A TOTAL OF          9 INNER ITERATIONS.
    ------------------------------------------------

 NO OUTPUT CONTROL FOR STRESS PERIOD   35   TIME STEP   10
 
 WELLS WITH REDUCED PUMPING FOR STRESS PERIOD    35 TIME STEP    10
   LAY   ROW   COL         APPL.Q          ACT.Q        GW-HEAD       CELL-BOT
     1     3    50  -0.789933E+00  -0.339858E+00   0.507759E+01   0.000000E+00
     1     5    55  -0.789933E+00  -0.262985E+00   0.429207E+01   0.000000E+00
 
 
 SOLVING FOR HEAD 
                                                   Max.-Head-Change                         Max.-Flux-Residual
  Residual-Control   Outer-Iter.   Inner-Iter.     Column Row Layer    Maximum-Head-Change  Column Row Layer    Maximum-Flux-Residual          L2-NORM 
          0                 1           2            50    1     1       0.2612355312E-01      50    2    1         0.2509550957E-02      0.2225873235E-01
          0                 2           2            50    1     1      -0.2586870309E-02      50    2    1        -0.2516824904E-03      0.2157781983E-02
          0                 3           2            50    1     1       0.2305062714E-03      50    2    1         0.2264383442E-04      0.1963135872E-03
          0                 4           1            50    1     1      -0.1829027409E-04      50    2    1        -0.1813833364E-05      0.1622442133E-04
          0                 5           1            50    1     1       0.1273563409E-05      50    2    1         0.1275103320E-06      0.1183953734E-05
          0                 6           1            50    1     1      -0.7644397781E-07      50    2    1        -0.7726624368E-08      0.7435340696E-07

    ------------------------------------------------
       NWT REQUIRED            6 OUTER ITERATIONS 
       AND A TOTAL OF          9 INNER ITERATIONS.
    ------------------------------------------------

 NO OUTPUT CONTROL FOR STRESS PERIOD   35   TIME STEP   11
 
 WELLS WITH REDUCED PUMPING FOR STRESS PERIOD    35 TIME STEP    11
   LAY   ROW   COL         APPL.Q          ACT.Q        GW-HEAD       CELL-BOT
     1     3    50  -0.790026E+00  -0.341006E+00   0.508814E+01   0.000000E+00
     1     5    55  -0.790026E+00  -0.263847E+00   0.430027E+01   0.000000E+00
 
 
 SOLVING FOR HEAD 
                                                   Max.-Head-Change                         Max.-Flux-Residual
  Residual-Control   Outer-Iter.   Inner-Iter.     Column Row Layer    Maximum-Head-Change  Column Row Layer    Maximum-Flux-Residual          L2-NORM 
          0                 1           2            50    1     1       0.2536762856E-01      50    1    1         0.2091995164E-02      0.2204785671E-01
          0                 2           2            50    1     1      -0.2512282450E-02      50    1    1        -0.2094907880E-03      0.2137945943E-02
          0                 3           2            50    1     1       0.2238374181E-03      50    1    1         0.1885124877E-04      0.1945805394E-03
          0                 4           1            50    1     1      -0.1775998196E-04      50    1    1        -0.1510008896E-05      0.1611169696E-04
          0                 5           1            50    1     1       0.1236401722E-05      50    1    1         0.1060873603E-06      0.1179217154E-05
          0                 6           1            50    1     1      -0.7419952055E-07      50    1    1        -0.6424271171E-08      0.7431780133E-07

    ------------------------------------------------
       NWT REQUIRED            6 OUTER ITERATIONS 
       AND A TOTAL OF          9 INNER ITERATIONS.
    ------------------------------------------------

 NO OUTPUT CONTROL FOR STRESS PERIOD   35   TIME STEP   12
 
 WELLS WITH REDUCED PUMPING FOR STRESS PERIOD    35 TIME STEP    12
   LAY   ROW   COL         APPL.Q          ACT.Q        GW-HEAD       CELL-BOT
     1     3    50  -0.790040E+00  -0.341960E+00   0.509718E+01   0.000000E+00
     1     5    55  -0.790040E+00  -0.264548E+00   0.430714E+01   0.000000E+00
 
 
 SOLVING FOR HEAD 
                                                   Max.-Head-Change                         Max.-Flux-Residual
  Residual-Control   Outer-Iter.   Inner-Iter.     Column Row Layer    Maximum-Head-Change  Column Row Layer    Maximum-Flux-Residual          L2-NORM 
          0                 1           2            50    1     1       0.2421637563E-01      50    1    1         0.1846760662E-02      0.2189740243E-01
          0                 2           2            50    1     1      -0.2398201457E-02      50    1    1        -0.1849754428E-03      0.2123453292E-02
          0                 3           2            50    1     1       0.2136471344E-03      50    1    1         0.1664479150E-04      0.1932679484E-03
          0                 4           1            50    1     1      -0.1694998030E-04      50    1    1        -0.1333272202E-05      0.1602601556E-04
          0                 5           1            50    1     1       0.1179688993E-05      50    1    1         0.9364389791E-07      0.1175943130E-05
          0                 6           1            50    1     1      -0.7077683972E-07      50    1    1        -0.5668978731E-08      0.7435765312E-07

    ------------------------------------------------
       NWT REQUIRED            6 OUTER ITERATIONS 
       AND A TOTAL OF          9 INNER ITERATIONS.
    ------------------------------------------------

 NO OUTPUT CONTROL FOR STRESS PERIOD   35   TIME STEP   13
 
 WELLS WITH REDUCED PUMPING FOR STRESS PERIOD    35 TIME STEP    13
   LAY   ROW   COL         APPL.Q          ACT.Q        GW-HEAD       CELL-BOT
     1     3    50  -0.790040E+00  -0.342791E+00   0.510509E+01   0.000000E+00
     1     5    55  -0.790040E+00  -0.265148E+00   0.431305E+01   0.000000E+00
 
 
 SOLVING FOR HEAD 
                                                   Max.-Head-Change                         Max.-Flux-Residual
  Residual-Control   Outer-Iter.   Inner-Iter.     Column Row Layer    Maximum-Head-Change  Column Row Layer    Maximum-Flux-Residual          L2-NORM 
          0                 1           2            50    1     1       0.2278186937E-01      50    1    1         0.1602684178E-02      0.2180978770E-01
          0                 2           2            50    1     1      -0.2255800698E-02      50    1    1        -0.1605469761E-03      0.2113321529E-02
          0                 3           2            50    1     1       0.2009315157E-03      50    1    1         0.1444643903E-04      0.1922322432E-03
          0                 4           1            50    1     1      -0.1593932254E-04      50    1    1        -0.1157182428E-05      0.1595369563E-04
          0                 5           1            50    1     1       0.1108918466E-05      50    1    1         0.8124249767E-07      0.1173115672E-05
          0                 6           1            50    1     1      -0.6650479565E-07       1    4    1        -0.5392948310E-08      0.7441193944E-07

    ------------------------------------------------
       NWT REQUIRED            6 OUTER ITERATIONS 
       AND A TOTAL OF          9 INNER ITERATIONS.
    ------------------------------------------------

 NO OUTPUT CONTROL FOR STRESS PERIOD   35   TIME STEP   14
 
 WELLS WITH REDUCED PUMPING FOR STRESS PERIOD    35 TIME STEP    14
   LAY   ROW   COL         APPL.Q          ACT.Q        GW-HEAD       CELL-BOT
     1     3    50  -0.790017E+00  -0.343523E+00   0.511217E+01   0.000000E+00
     1     5    55  -0.790017E+00  -0.265666E+00   0.431824E+01   0.000000E+00
 
 
 SOLVING FOR HEAD 
                                                   Max.-Head-Change                         Max.-Flux-Residual
  Residual-Control   Outer-Iter.   Inner-Iter.     Column Row Layer    Maximum-Head-Change  Column Row Layer    Maximum-Flux-Residual          L2-NORM 
          0                 1           2             1    4     1      -0.2297908410E-01      50    1    1         0.1370696885E-02      0.2174458069E-01
          0                 2           2             1    1     1       0.2179553656E-02      50    1    1        -0.1373119696E-03      0.2107776743E-02
          0                 3           2             1    1     1      -0.1865412105E-03      50    1    1         0.1235565076E-04      0.1917967840E-03
          0                 4           1            50    1     1      -0.1479281295E-04      50    1    1        -0.9897073326E-06      0.1594173932E-04
          0                 5           1            50    1     1       0.1028600635E-05      18    4    1         0.6980390310E-07      0.1174908081E-05
          0                 6           1            50    1     1      -0.6165400595E-07       4    4    1        -0.5537749814E-08      0.7475114258E-07

    ------------------------------------------------
       NWT REQUIRED            6 OUTER ITERATIONS 
       AND A TOTAL OF          9 INNER ITERATIONS.
    ------------------------------------------------

 NO OUTPUT CONTROL FOR STRESS PERIOD   35   TIME STEP   15
 
 WELLS WITH REDUCED PUMPING FOR STRESS PERIOD    35 TIME STEP    15
   LAY   ROW   COL         APPL.Q          ACT.Q        GW-HEAD       CELL-BOT
     1     3    50  -0.790017E+00  -0.344186E+00   0.511848E+01   0.000000E+00
     1     5    55  -0.790017E+00  -0.266127E+00   0.432278E+01   0.000000E+00
 
 
 SOLVING FOR HEAD 
                                                   Max.-Head-Change                         Max.-Flux-Residual
  Residual-Control   Outer-Iter.   Inner-Iter.     Column Row Layer    Maximum-Head-Change  Column Row Layer    Maximum-Flux-Residual          L2-NORM 
          0                 1           2             1    1     1      -0.2527740115E-01       1    3    1        -0.1266852607E-02      0.2168900234E-01
          0                 2           2             1    1     1       0.2396990185E-02       1    3    1         0.1266813402E-03      0.2102809182E-02
          0                 3           2             1    1     1      -0.2047424101E-03       1    5    1        -0.1140162388E-04      0.1914223340E-03
          0                 4           1             1    1     1       0.1558045507E-04       1    3    1         0.9132669661E-06      0.1593555776E-04
          0                 5           1             1    1     1      -0.1040492396E-05       2    4    1         0.7113406397E-07      0.1177136836E-05
          0                 6           1             1    1     1       0.6000495857E-07       2    4    1        -0.5686121796E-08      0.7511286945E-07

    ------------------------------------------------
       NWT REQUIRED            6 OUTER ITERATIONS 
       AND A TOTAL OF          9 INNER ITERATIONS.
    ------------------------------------------------

 NO OUTPUT CONTROL FOR STRESS PERIOD   35   TIME STEP   16
 
 WELLS WITH REDUCED PUMPING FOR STRESS PERIOD    35 TIME STEP    16
   LAY   ROW   COL         APPL.Q          ACT.Q        GW-HEAD       CELL-BOT
     1     3    50  -0.790017E+00  -0.344783E+00   0.512416E+01   0.000000E+00
     1     5    55  -0.790017E+00  -0.266534E+00   0.432679E+01   0.000000E+00
 
 
 SOLVING FOR HEAD 
                                                   Max.-Head-Change                         Max.-Flux-Residual
  Residual-Control   Outer-Iter.   Inner-Iter.     Column Row Layer    Maximum-Head-Change  Column Row Layer    Maximum-Flux-Residual          L2-NORM 
          0                 1           2             1    1     1      -0.2780270809E-01       1    5    1        -0.1264166609E-02      0.2164580916E-01
          0                 2           2             1    1     1       0.2631512978E-02       1    5    1         0.1264127620E-03      0.2098492702E-02
          0                 3           2             1    1     1      -0.2242745520E-03       1    3    1        -0.1137747702E-04      0.1910381086E-03
          0                 4           1             1    1     1       0.1702169224E-04       1    5    1         0.9113324637E-06      0.1592155593E-04
          0                 5           1             1    1     1      -0.1132501400E-05      29    4    1         0.7284936743E-07      0.1178133411E-05
          0                 6           1             1    1     1       0.6503818128E-07       2    4    1        -0.5801439329E-08      0.7536924678E-07

    ------------------------------------------------
       NWT REQUIRED            6 OUTER ITERATIONS 
       AND A TOTAL OF          9 INNER ITERATIONS.
    ------------------------------------------------

 NO OUTPUT CONTROL FOR STRESS PERIOD   35   TIME STEP   17
 
 WELLS WITH REDUCED PUMPING FOR STRESS PERIOD    35 TIME STEP    17
   LAY   ROW   COL         APPL.Q          ACT.Q        GW-HEAD       CELL-BOT
     1     3    50  -0.790034E+00  -0.345324E+00   0.512924E+01   0.000000E+00
     1     5    55  -0.790034E+00  -0.266895E+00   0.433029E+01   0.000000E+00
 
 
 SOLVING FOR HEAD 
                                                   Max.-Head-Change                         Max.-Flux-Residual
  Residual-Control   Outer-Iter.   Inner-Iter.     Column Row Layer    Maximum-Head-Change  Column Row Layer    Maximum-Flux-Residual          L2-NORM 
          0                 1           2             1    1     1      -0.3056351288E-01       1    5    1        -0.1262517672E-02      0.2161295006E-01
          0                 2           2             1    1     1       0.2887417569E-02       1    5    1         0.1262477470E-03      0.2095301265E-02
          0                 3           2             1    1     1      -0.2455352623E-03       1    5    1        -0.1136265546E-04      0.1907815940E-03
          0                 4           1             1    1     1       0.1858512132E-04       1    5    1         0.9101448448E-06      0.1591805258E-04
          0                 5           1             1    1     1      -0.1231450704E-05      30    4    1         0.7368640098E-07      0.1179474137E-05
          0                 6           1             1    1     1       0.7039314382E-07       2    4    1        -0.5905299361E-08      0.7561736762E-07

    ------------------------------------------------
       NWT REQUIRED            6 OUTER ITERATIONS 
       AND A TOTAL OF          9 INNER ITERATIONS.
    ------------------------------------------------

 NO OUTPUT CONTROL FOR STRESS PERIOD   35   TIME STEP   18
 
 WELLS WITH REDUCED PUMPING FOR STRESS PERIOD    35 TIME STEP    18
   LAY   ROW   COL         APPL.Q          ACT.Q        GW-HEAD       CELL-BOT
     1     3    50  -0.790026E+00  -0.345806E+00   0.513386E+01   0.000000E+00
     1     5    55  -0.790026E+00  -0.267208E+00   0.433339E+01   0.000000E+00
 
 
 SOLVING FOR HEAD 
                                                   Max.-Head-Change                         Max.-Flux-Residual
  Residual-Control   Outer-Iter.   Inner-Iter.     Column Row Layer    Maximum-Head-Change  Column Row Layer    Maximum-Flux-Residual          L2-NORM 
          0                 1           2             1    1     1      -0.3359509313E-01       1    5    1        -0.1261430106E-02      0.2159474889E-01
          0                 2           2             1    1     1       0.3168668863E-02       1    5    1         0.1261387511E-03      0.2093175457E-02
          0                 3           2             4    1     1      -0.2690386475E-03       1    5    1        -0.1135287873E-04      0.1904913666E-03
          0                 4           1             4    1     1       0.2032865086E-04       1    3    1         0.9093612547E-06      0.1589828790E-04
          0                 5           1             4    1     1      -0.1342190950E-05       2    4    1         0.7452214490E-07      0.1178535272E-05
          0                 6           1             4    1     1       0.7633009673E-07       2    4    1        -0.6008995967E-08      0.7566693318E-07

    ------------------------------------------------
       NWT REQUIRED            6 OUTER ITERATIONS 
       AND A TOTAL OF          9 INNER ITERATIONS.
    ------------------------------------------------

 NO OUTPUT CONTROL FOR STRESS PERIOD   35   TIME STEP   19
 
 WELLS WITH REDUCED PUMPING FOR STRESS PERIOD    35 TIME STEP    19
   LAY   ROW   COL         APPL.Q          ACT.Q        GW-HEAD       CELL-BOT
     1     3    50  -0.789983E+00  -0.346232E+00   0.513810E+01   0.000000E+00
     1     5    55  -0.789983E+00  -0.267476E+00   0.433618E+01   0.000000E+00
 
 
 SOLVING FOR HEAD 
                                                   Max.-Head-Change                         Max.-Flux-Residual
  Residual-Control   Outer-Iter.   Inner-Iter.     Column Row Layer    Maximum-Head-Change  Column Row Layer    Maximum-Flux-Residual          L2-NORM 
          0                 1           2             3    4     1      -0.3717880544E-01       1    5    1        -0.1260557028E-02      0.2161361005E-01
          0                 2           2             2    1     1       0.3497772546E-02       1    5    1         0.1260555156E-03      0.2092959529E-02
          0                 3           2             2    1     1      -0.2965214113E-03       1    5    1        -0.1134539052E-04      0.1902498493E-03
          0                 4           1             2    1     1       0.2234442808E-04       1    5    1         0.9087611090E-06      0.1587595265E-04
          0                 5           1             1    1     1      -0.1467520583E-05      30    4    1         0.7406084634E-07      0.1176689981E-05
          0                 6           1             1    1     1       0.8300084410E-07       1    4    1        -0.5813507897E-08      0.7562268203E-07

    ------------------------------------------------
       NWT REQUIRED            6 OUTER ITERATIONS 
       AND A TOTAL OF          9 INNER ITERATIONS.
    ------------------------------------------------

 NO OUTPUT CONTROL FOR STRESS PERIOD   35   TIME STEP   20
 
 WELLS WITH REDUCED PUMPING FOR STRESS PERIOD    35 TIME STEP    20
   LAY   ROW   COL         APPL.Q          ACT.Q        GW-HEAD       CELL-BOT
     1     3    50  -0.789976E+00  -0.346619E+00   0.514180E+01   0.000000E+00
     1     5    55  -0.789976E+00  -0.267713E+00   0.433852E+01   0.000000E+00
 
 
 SOLVING FOR HEAD 
                                                   Max.-Head-Change                         Max.-Flux-Residual
  Residual-Control   Outer-Iter.   Inner-Iter.     Column Row Layer    Maximum-Head-Change  Column Row Layer    Maximum-Flux-Residual          L2-NORM 
          0                 1           2             1    1     1      -0.4091038167E-01       3    5    1        -0.1270985776E-02      0.2162787779E-01
          0                 2           2             1    1     1       0.3851205542E-02       3    3    1         0.1270930036E-03      0.2095669409E-02
          0                 3           2             1    1     1      -0.3259167482E-03       3    5    1        -0.1143884370E-04      0.1905467788E-03
          0                 4           1             1    1     1       0.2450534840E-04       3    3    1         0.9162459058E-06      0.1591281761E-04
          0                 5           1             1    1     1      -0.1600847044E-05      30    4    1         0.7609797414E-07      0.1179117010E-05
          0                 6           1             1    1     1       0.8997796272E-07       7    4    1        -0.5995286045E-08      0.7581486879E-07

    ------------------------------------------------
       NWT REQUIRED            6 OUTER ITERATIONS 
       AND A TOTAL OF          9 INNER ITERATIONS.
    ------------------------------------------------

 NO OUTPUT CONTROL FOR STRESS PERIOD   35   TIME STEP   21
 
 WELLS WITH REDUCED PUMPING FOR STRESS PERIOD    35 TIME STEP    21
   LAY   ROW   COL         APPL.Q          ACT.Q        GW-HEAD       CELL-BOT
     1     3    50  -0.790000E+00  -0.346960E+00   0.514495E+01   0.000000E+00
     1     5    55  -0.790000E+00  -0.267913E+00   0.434041E+01   0.000000E+00
 
 
 SOLVING FOR HEAD 
                                                   Max.-Head-Change                         Max.-Flux-Residual
  Residual-Control   Outer-Iter.   Inner-Iter.     Column Row Layer    Maximum-Head-Change  Column Row Layer    Maximum-Flux-Residual          L2-NORM 
          0                 1           2             1    1     1      -0.4499309493E-01       1    5    1        -0.1271487615E-02      0.2163262016E-01
          0                 2           2             1    1     1       0.4229635194E-02       1    3    1         0.1271426949E-03      0.2096485725E-02
          0                 3           2             1    1     1      -0.3573197523E-03       1    5    1        -0.1144336079E-04      0.1906140034E-03
          0                 4           1             1    1     1       0.2680271904E-04       1    5    1         0.9166071102E-06      0.1592762823E-04
          0                 5           1             1    1     1      -0.1739902198E-05      32    4    1         0.7515512124E-07      0.1179069834E-05
          0                 6           1             1    1     1       0.9707608849E-07       7    4    1        -0.6087184090E-08      0.7579584504E-07

    ------------------------------------------------
       NWT REQUIRED            6 OUTER ITERATIONS 
       AND A TOTAL OF          9 INNER ITERATIONS.
    ------------------------------------------------

 NO OUTPUT CONTROL FOR STRESS PERIOD   35   TIME STEP   22
 
 WELLS WITH REDUCED PUMPING FOR STRESS PERIOD    35 TIME STEP    22
   LAY   ROW   COL         APPL.Q          ACT.Q        GW-HEAD       CELL-BOT
     1     3    50  -0.789995E+00  -0.347245E+00   0.514768E+01   0.000000E+00
     1     5    55  -0.789995E+00  -0.268068E+00   0.434196E+01   0.000000E+00
 
 
 SOLVING FOR HEAD 
                                                   Max.-Head-Change                         Max.-Flux-Residual
  Residual-Control   Outer-Iter.   Inner-Iter.     Column Row Layer    Maximum-Head-Change  Column Row Layer    Maximum-Flux-Residual          L2-NORM 
          0                 1           2             1    1     1      -0.4944446575E-01       1    5    1        -0.1269265745E-02      0.2163414322E-01
          0                 2           2             1    1     1       0.4641423111E-02       1    3    1         0.1269204200E-03      0.2096759343E-02
          0                 3           2             1    1     1      -0.3914070894E-03       1    5    1        -0.1142340085E-04      0.1906503884E-03
          0                 4           1             1    1     1       0.2928603796E-04       1    5    1         0.9150076679E-06      0.1594112600E-04
          0                 5           1             1    1     1      -0.1886642011E-05      32    4    1         0.7660027279E-07      0.1177961163E-05
          0                 6           1             1    1     1       0.1043295581E-06       7    4    1        -0.6171791966E-08      0.7564188901E-07

    ------------------------------------------------
       NWT REQUIRED            6 OUTER ITERATIONS 
       AND A TOTAL OF          9 INNER ITERATIONS.
    ------------------------------------------------

 NO OUTPUT CONTROL FOR STRESS PERIOD   35   TIME STEP   23
 
 WELLS WITH REDUCED PUMPING FOR STRESS PERIOD    35 TIME STEP    23
   LAY   ROW   COL         APPL.Q          ACT.Q        GW-HEAD       CELL-BOT
     1     3    50  -0.790014E+00  -0.347485E+00   0.514988E+01   0.000000E+00
     1     5    55  -0.790014E+00  -0.268189E+00   0.434308E+01   0.000000E+00
 
 
 SOLVING FOR HEAD 
                                                   Max.-Head-Change                         Max.-Flux-Residual
  Residual-Control   Outer-Iter.   Inner-Iter.     Column Row Layer    Maximum-Head-Change  Column Row Layer    Maximum-Flux-Residual          L2-NORM 
          0                 1           2             1    1     1      -0.5432546637E-01       1    5    1        -0.1267737121E-02      0.2163288698E-01
          0                 2           2             1    1     1       0.5092590995E-02       1    3    1         0.1267671325E-03      0.2096810449E-02
          0                 3           2             1    1     1      -0.4287135401E-03       1    5    1        -0.1140965736E-04      0.1906433823E-03
          0                 4           1             1    1     1       0.3199606373E-04       1    3    1         0.9139060850E-06      0.1594944764E-04
          0                 5           1             1    1     1      -0.2042398829E-05      30    4    1         0.7731115481E-07      0.1175629687E-05
          0                 6           1             1    1     1       0.1117387299E-06       7    4    1        -0.6254889939E-08      0.7536219371E-07

    ------------------------------------------------
       NWT REQUIRED            6 OUTER ITERATIONS 
       AND A TOTAL OF          9 INNER ITERATIONS.
    ------------------------------------------------

 NO OUTPUT CONTROL FOR STRESS PERIOD   35   TIME STEP   24
 
 WELLS WITH REDUCED PUMPING FOR STRESS PERIOD    35 TIME STEP    24
   LAY   ROW   COL         APPL.Q          ACT.Q        GW-HEAD       CELL-BOT
     1     3    50  -0.789996E+00  -0.347666E+00   0.515168E+01   0.000000E+00
     1     5    55  -0.789996E+00  -0.268265E+00   0.434389E+01   0.000000E+00
 
 
 SOLVING FOR HEAD 
                                                   Max.-Head-Change                         Max.-Flux-Residual
  Residual-Control   Outer-Iter.   Inner-Iter.     Column Row Layer    Maximum-Head-Change  Column Row Layer    Maximum-Flux-Residual          L2-NORM 
          0                 1           3             1    1     1      -0.5968311389E-01       1    2    1        -0.1266333156E-02      0.2162818854E-01
          0                 2           2             1    1     1       0.5587739472E-02       1    7    1         0.1266281575E-03      0.2096483656E-02
          0                 3           2             1    1     1      -0.4696241909E-03       1    7    1        -0.1139704448E-04      0.1905771973E-03
          0                 4           1             1    1     1       0.3496095567E-04       1    7    1         0.9128963323E-06      0.1594864776E-04
          0                 5           1             1    1     1      -0.2208613036E-05      30    4    1         0.7861120110E-07      0.1170952922E-05
          0                 6           1             1    1     1       0.1193651679E-06       9    4    1        -0.6301632993E-08      0.7484140220E-07

    ------------------------------------------------
       NWT REQUIRED            6 OUTER ITERATIONS 
       AND A TOTAL OF         10 INNER ITERATIONS.
    ------------------------------------------------

 NO OUTPUT CONTROL FOR STRESS PERIOD   35   TIME STEP   25
 
 WELLS WITH REDUCED PUMPING FOR STRESS PERIOD    35 TIME STEP    25
   LAY   ROW   COL         APPL.Q          ACT.Q        GW-HEAD       CELL-BOT
     1     3    50  -0.790008E+00  -0.347798E+00   0.515288E+01   0.000000E+00
     1     5    55  -0.790008E+00  -0.268305E+00   0.434424E+01   0.000000E+00
 
 
 SOLVING FOR HEAD 
                                                   Max.-Head-Change                         Max.-Flux-Residual
  Residual-Control   Outer-Iter.   Inner-Iter.     Column Row Layer    Maximum-Head-Change  Column Row Layer    Maximum-Flux-Residual          L2-NORM 
          0                 1           3             1    1     1      -0.6556344180E-01       1    7    1        -0.1264881744E-02      0.2162065824E-01
          0                 2           2             1    1     1       0.6130831935E-02       1    7    1         0.1264824337E-03      0.2095696382E-02
          0                 3           2             1    1     1      -0.5144622689E-03       1    7    1        -0.1138399057E-04      0.1904666153E-03
          0                 4           1             1    1     1       0.3819832977E-04       1    7    1         0.9118498494E-06      0.1594318975E-04
          0                 5           1             1    1     1      -0.2380537654E-05       9    4    1         0.7883071618E-07      0.1164613126E-05
          0                 6           1             1    1     1       0.1266573204E-06       9    4    1        -0.6409536013E-08      0.7415281805E-07

    ------------------------------------------------
       NWT REQUIRED            6 OUTER ITERATIONS 
       AND A TOTAL OF         10 INNER ITERATIONS.
    ------------------------------------------------

 NO OUTPUT CONTROL FOR STRESS PERIOD   35   TIME STEP   26
 
 WELLS WITH REDUCED PUMPING FOR STRESS PERIOD    35 TIME STEP    26
   LAY   ROW   COL         APPL.Q          ACT.Q        GW-HEAD       CELL-BOT
     1     3    50  -0.790005E+00  -0.347860E+00   0.515349E+01   0.000000E+00
     1     5    55  -0.790005E+00  -0.268298E+00   0.434418E+01   0.000000E+00
 
 
 SOLVING FOR HEAD 
                                                   Max.-Head-Change                         Max.-Flux-Residual
  Residual-Control   Outer-Iter.   Inner-Iter.     Column Row Layer    Maximum-Head-Change  Column Row Layer    Maximum-Flux-Residual          L2-NORM 
          0                 1           3             1    1     1      -0.7201617231E-01       1    7    1        -0.1263316816E-02      0.2160686759E-01
          0                 2           2             1    1     1       0.6726567899E-02       1    7    1         0.1263252320E-03      0.2094638440E-02
          0                 3           2             1    1     1      -0.5636101239E-03       1    7    1        -0.1136990993E-04      0.1903731367E-03
          0                 4           1             1    1     1       0.4173382971E-04       1    7    1         0.9107210266E-06      0.1594073436E-04
          0                 5           1             1    1     1      -0.2557884174E-05       9    4    1         0.8035075183E-07      0.1156647680E-05
          0                 6           1             1    1     1       0.1334990042E-06       9    4    1        -0.6508365402E-08      0.7327972497E-07

    ------------------------------------------------
       NWT REQUIRED            6 OUTER ITERATIONS 
       AND A TOTAL OF         10 INNER ITERATIONS.
    ------------------------------------------------

 NO OUTPUT CONTROL FOR STRESS PERIOD   35   TIME STEP   27
 
 WELLS WITH REDUCED PUMPING FOR STRESS PERIOD    35 TIME STEP    27
   LAY   ROW   COL         APPL.Q          ACT.Q        GW-HEAD       CELL-BOT
     1     3    50  -0.790001E+00  -0.347854E+00   0.515345E+01   0.000000E+00
     1     5    55  -0.790001E+00  -0.268237E+00   0.434359E+01   0.000000E+00
 
 
 SOLVING FOR HEAD 
                                                   Max.-Head-Change                         Max.-Flux-Residual
  Residual-Control   Outer-Iter.   Inner-Iter.     Column Row Layer    Maximum-Head-Change  Column Row Layer    Maximum-Flux-Residual          L2-NORM 
          0                 1           3             1    1     1      -0.7909519897E-01       1    7    1        -0.1261623424E-02      0.2158534950E-01
          0                 2           2             1    1     1       0.7379910772E-02       1    7    1         0.1261550999E-03      0.2092845328E-02
          0                 3           2             1    1     1      -0.6174689901E-03       1    7    1        -0.1135467247E-04      0.1902004104E-03
          0                 4           1             1    1     1       0.4559085818E-04       1    1    1         0.9094994482E-06      0.1593199268E-04
          0                 5           1             1    1     1      -0.2736756264E-05       9    4    1         0.8214514224E-07      0.1146217300E-05
          0                 6           1             1    1     1       0.1394798524E-06       9    4    1        -0.6617099757E-08      0.7219946702E-07

    ------------------------------------------------
       NWT REQUIRED            6 OUTER ITERATIONS 
       AND A TOTAL OF         10 INNER ITERATIONS.
    ------------------------------------------------

 NO OUTPUT CONTROL FOR STRESS PERIOD   35   TIME STEP   28
 
 WELLS WITH REDUCED PUMPING FOR STRESS PERIOD    35 TIME STEP    28
   LAY   ROW   COL         APPL.Q          ACT.Q        GW-HEAD       CELL-BOT
     1     3    50  -0.789986E+00  -0.347766E+00   0.515267E+01   0.000000E+00
     1     5    55  -0.789986E+00  -0.268109E+00   0.434239E+01   0.000000E+00
 
 
 SOLVING FOR HEAD 
                                                   Max.-Head-Change                         Max.-Flux-Residual
  Residual-Control   Outer-Iter.   Inner-Iter.     Column Row Layer    Maximum-Head-Change  Column Row Layer    Maximum-Flux-Residual          L2-NORM 
          0                 1           3             1    1     1      -0.8685914107E-01       1    7    1        -0.1259784323E-02      0.2155520389E-01
          0                 2           2             1    1     1       0.8096254755E-02       1    7    1         0.1259703031E-03      0.2090171584E-02
          0                 3           2             1    1     1      -0.6764706408E-03       1    7    1        -0.1133812273E-04      0.1899400016E-03
          0                 4           1             1    1     1       0.4979405795E-04       4    3    1         0.9086012298E-06      0.1591468996E-04
          0                 5           1             1    1     1      -0.2912691384E-05       9    4    1         0.8423262443E-07      0.1133020082E-05
          0                 6           1             1    1     1       0.1441503374E-06       9    4    1        -0.6731543323E-08      0.7092106421E-07

    ------------------------------------------------
       NWT REQUIRED            6 OUTER ITERATIONS 
       AND A TOTAL OF         10 INNER ITERATIONS.
    ------------------------------------------------

 NO OUTPUT CONTROL FOR STRESS PERIOD   35   TIME STEP   29
 
 WELLS WITH REDUCED PUMPING FOR STRESS PERIOD    35 TIME STEP    29
   LAY   ROW   COL         APPL.Q          ACT.Q        GW-HEAD       CELL-BOT
     1     3    50  -0.790008E+00  -0.347581E+00   0.515082E+01   0.000000E+00
     1     5    55  -0.790008E+00  -0.267904E+00   0.434030E+01   0.000000E+00
 
 
 SOLVING FOR HEAD 
                                                   Max.-Head-Change                         Max.-Flux-Residual
  Residual-Control   Outer-Iter.   Inner-Iter.     Column Row Layer    Maximum-Head-Change  Column Row Layer    Maximum-Flux-Residual          L2-NORM 
          0                 1           3             1    1     1      -0.9537167452E-01       1    7    1        -0.1257781656E-02      0.2151689275E-01
          0                 2           2             1    1     1       0.8881452624E-02       1    7    1         0.1257690451E-03      0.2086614116E-02
          0                 3           2             1    1     1      -0.7410771787E-03       3    2    1        -0.1132143209E-04      0.1896144328E-03
          0                 4           1             1    1     1       0.5436764970E-04       4    3    1         0.9083523764E-06      0.1589290779E-04
          0                 5           1             1    1     1      -0.3079101120E-05       9    4    1         0.8668866869E-07      0.1117943459E-05
          0                 6           1             1    1     1       0.1469634029E-06       9    4    1        -0.6850914502E-08      0.6959048644E-07

    ------------------------------------------------
       NWT REQUIRED            6 OUTER ITERATIONS 
       AND A TOTAL OF         10 INNER ITERATIONS.
    ------------------------------------------------

 OUTPUT CONTROL FOR STRESS PERIOD   35   TIME STEP   30
    PRINT HEAD FOR ALL LAYERS
    SAVE HEAD FOR ALL LAYERS
    PRINT BUDGET
    SAVE BUDGET
 
 WELLS WITH REDUCED PUMPING FOR STRESS PERIOD    35 TIME STEP    30
   LAY   ROW   COL         APPL.Q          ACT.Q        GW-HEAD       CELL-BOT
     1     3    50  -0.789977E+00  -0.347288E+00   0.514816E+01   0.000000E+00
     1     5    55  -0.789977E+00  -0.267614E+00   0.433755E+01   0.000000E+00

            WELLS   PERIOD   35   STEP  30
 WELL      1   LAYER   1   ROW     3   COL    50   RATE   -0.347288    
 WELL      2   LAYER   1   ROW     5   COL    55   RATE   -0.267614    
 

  HEAD DEP BOUNDS   PERIOD   35   STEP    30
 BOUNDARY      1   LAYER   1   ROW     1   COL   100   RATE    1.008397E-02
 BOUNDARY      2   LAYER   1   ROW     2   COL   100   RATE    1.007096E-02
 BOUNDARY      3   LAYER   1   ROW     3   COL   100   RATE    9.929474E-03
 BOUNDARY      4   LAYER   1   ROW     4   COL   100   RATE    6.571736E-03
 BOUNDARY      5   LAYER   1   ROW     5   COL   100   RATE    9.929474E-03
 BOUNDARY      6   LAYER   1   ROW     6   COL   100   RATE    1.007096E-02
 BOUNDARY      7   LAYER   1   ROW     7   COL   100   RATE    1.008397E-02



 STREAM LISTING     PERIOD     35   STEP       30

 LAYER ROW COL. STREAM  RCH.   FLOW INTO    STREAM     FLOW OUT OF   OVRLND.    DIRECT     STREAM      STREAM      STREAM     STREAM  STREAMBED   FLOW TO   CHNG. UNSAT. 
                SEG.NO.  NO.   STRM. RCH.    LOSS       STRM. RCH.   RUNOFF     PRECIP       ET         HEAD        DEPTH      WIDTH  CONDCTNC.   WAT. TAB.

   1    4    1     1     1    5.3000E-02  1.8175E-04   5.2818E-02  0.000E+00  0.000E+00  0.000E+00  1.40076E+02  2.264E-01  1.639E+00  2.502E-04  3.484E-04 -1.667E-04
   1    4    2     1     2    5.2818E-02  1.8144E-04   5.2637E-02  0.000E+00  0.000E+00  0.000E+00  1.39776E+02  2.261E-01  1.637E+00  2.499E-04  3.483E-04 -1.668E-04
   1    4    3     1     3    5.2637E-02  1.8114E-04   5.2456E-02  0.000E+00  0.000E+00  0.000E+00  1.39476E+02  2.258E-01  1.635E+00  2.496E-04  3.481E-04 -1.670E-04
   1    4    4     1     4    5.2456E-02  1.8083E-04   5.2275E-02  0.000E+00  0.000E+00  0.000E+00  1.39176E+02  2.255E-01  1.633E+00  2.492E-04  3.480E-04 -1.672E-04
   1    4    5     1     5    5.2275E-02  1.8052E-04   5.2094E-02  0.000E+00  0.000E+00  0.000E+00  1.38875E+02  2.253E-01  1.630E+00  2.489E-04  3.478E-04 -1.673E-04
   1    4    6     1     6    5.2094E-02  1.8022E-04   5.1914E-02  0.000E+00  0.000E+00  0.000E+00  1.38575E+02  2.250E-01  1.628E+00  2.486E-04  3.477E-04 -1.676E-04
   1    4    7     1     7    5.1914E-02  1.7991E-04   5.1734E-02  0.000E+00  0.000E+00  0.000E+00  1.38275E+02  2.247E-01  1.626E+00  2.483E-04  3.476E-04 -1.678E-04
   1    4    8     1     8    5.1734E-02  1.7960E-04   5.1555E-02  0.000E+00  0.000E+00  0.000E+00  1.37974E+02  2.244E-01  1.624E+00  2.479E-04  3.476E-04 -1.680E-04
   1    4    9     1     9    5.1555E-02  1.7929E-04   5.1375E-02  0.000E+00  0.000E+00  0.000E+00  1.37674E+02  2.241E-01  1.622E+00  2.476E-04  3.475E-04 -1.683E-04
   1    4   10     1    10    5.1375E-02  1.7899E-04   5.1196E-02  0.000E+00  0.000E+00  0.000E+00  1.37374E+02  2.238E-01  1.620E+00  2.473E-04  3.475E-04 -1.685E-04
   1    4   11     1    11    5.1196E-02  1.7868E-04   5.1018E-02  0.000E+00  0.000E+00  0.000E+00  1.37074E+02  2.235E-01  1.618E+00  2.470E-04  3.474E-04 -1.688E-04
   1    4   12     1    12    5.1018E-02  1.7837E-04   5.0839E-02  0.000E+00  0.000E+00  0.000E+00  1.36773E+02  2.232E-01  1.616E+00  2.466E-04  3.474E-04 -1.691E-04
   1    4   13     1    13    5.0839E-02  1.7807E-04   5.0661E-02  0.000E+00  0.000E+00  0.000E+00  1.36473E+02  2.229E-01  1.613E+00  2.463E-04  3.475E-04 -1.694E-04
   1    4   14     1    14    5.0661E-02  1.7776E-04   5.0483E-02  0.000E+00  0.000E+00  0.000E+00  1.36173E+02  2.226E-01  1.611E+00  2.460E-04  3.475E-04 -1.698E-04
   1    4   15     1    15    5.0483E-02  1.7746E-04   5.0306E-02  0.000E+00  0.000E+00  0.000E+00  1.35872E+02  2.223E-01  1.609E+00  2.457E-04  3.475E-04 -1.701E-04
   1    4   16     1    16    5.0306E-02  1.7715E-04   5.0129E-02  0.000E+00  0.000E+00  0.000E+00  1.35572E+02  2.220E-01  1.607E+00  2.453E-04  3.476E-04 -1.705E-04
   1    4   17     1    17    5.0129E-02  1.7684E-04   4.9952E-02  0.000E+00  0.000E+00  0.000E+00  1.35272E+02  2.217E-01  1.605E+00  2.450E-04  3.477E-04 -1.709E-04
   1    4   18     1    18    4.9952E-02  1.7654E-04   4.9775E-02  0.000E+00  0.000E+00  0.000E+00  1.34971E+02  2.214E-01  1.603E+00  2.447E-04  3.478E-04 -1.713E-04
   1    4   19     1    19    4.9775E-02  1.7623E-04   4.9599E-02  0.000E+00  0.000E+00  0.000E+00  1.34671E+02  2.211E-01  1.601E+00  2.444E-04  3.479E-04 -1.717E-04
   1    4   20     1    20    4.9599E-02  1.7592E-04   4.9423E-02  0.000E+00  0.000E+00  0.000E+00  1.34371E+02  2.209E-01  1.599E+00  2.440E-04  3.481E-04 -1.722E-04
   1    4   21     1    21    4.9423E-02  1.7562E-04   4.9248E-02  0.000E+00  0.000E+00  0.000E+00  1.34071E+02  2.206E-01  1.596E+00  2.437E-04  3.482E-04 -1.726E-04
   1    4   22     1    22    4.9248E-02  1.7531E-04   4.9072E-02  0.000E+00  0.000E+00  0.000E+00  1.33770E+02  2.203E-01  1.594E+00  2.434E-04  3.484E-04 -1.731E-04
   1    4   23     1    23    4.9072E-02  1.7501E-04   4.8897E-02  0.000E+00  0.000E+00  0.000E+00  1.33470E+02  2.200E-01  1.592E+00  2.431E-04  3.486E-04 -1.737E-04
   1    4   24     1    24    4.8897E-02  1.7470E-04   4.8723E-02  0.000E+00  0.000E+00  0.000E+00  1.33170E+02  2.197E-01  1.590E+00  2.427E-04  3.489E-04 -1.742E-04
   1    4   25     1    25    4.8723E-02  1.7439E-04   4.8548E-02  0.000E+00  0.000E+00  0.000E+00  1.32869E+02  2.194E-01  1.588E+00  2.424E-04  3.491E-04 -1.748E-04
   1    4   26     1    26    4.8548E-02  1.7409E-04   4.8374E-02  0.000E+00  0.000E+00  0.000E+00  1.32569E+02  2.191E-01  1.586E+00  2.421E-04  3.494E-04 -1.754E-04
   1    4   27     1    27    4.8374E-02  1.7378E-04   4.8200E-02  0.000E+00  0.000E+00  0.000E+00  1.32269E+02  2.188E-01  1.584E+00  2.418E-04  3.497E-04 -1.760E-04
   1    4   28     1    28    4.8200E-02  1.7348E-04   4.8027E-02  0.000E+00  0.000E+00  0.000E+00  1.31968E+02  2.185E-01  1.581E+00  2.414E-04  3.566E-04 -1.831E-04
   1    4   29     1    29    4.8027E-02  1.7317E-04   4.7854E-02  0.000E+00  0.000E+00  0.000E+00  1.31668E+02  2.182E-01  1.579E+00  2.411E-04  3.730E-04 -1.999E-04
   1    4   30     1    30    4.7854E-02  1.7286E-04   4.7681E-02  0.000E+00  0.000E+00  0.000E+00  1.31368E+02  2.179E-01  1.577E+00  2.408E-04  3.735E-04 -2.007E-04
   1    4   31     1    31    4.7681E-02  1.7256E-04   4.7508E-02  0.000E+00  0.000E+00  0.000E+00  1.31068E+02  2.176E-01  1.575E+00  2.405E-04  3.740E-04 -2.015E-04
   1    4   32     1    32    4.7508E-02  1.7225E-04   4.7336E-02  0.000E+00  0.000E+00  0.000E+00  1.30767E+02  2.173E-01  1.573E+00  2.401E-04  3.746E-04 -2.024E-04
   1    4   33     1    33    4.7336E-02  1.7195E-04   4.7164E-02  0.000E+00  0.000E+00  0.000E+00  1.30467E+02  2.170E-01  1.571E+00  2.398E-04  3.753E-04 -2.034E-04
   1    4   34     1    34    4.7164E-02  1.7164E-04   4.6992E-02  0.000E+00  0.000E+00  0.000E+00  1.30167E+02  2.167E-01  1.569E+00  2.395E-04  3.760E-04 -2.044E-04
   1    4   35     1    35    4.6992E-02  1.7134E-04   4.6821E-02  0.000E+00  0.000E+00  0.000E+00  1.29866E+02  2.164E-01  1.566E+00  2.392E-04  3.767E-04 -2.054E-04
   1    4   36     1    36    4.6821E-02  1.7103E-04   4.6650E-02  0.000E+00  0.000E+00  0.000E+00  1.29566E+02  2.161E-01  1.564E+00  2.388E-04  3.775E-04 -2.065E-04
   1    4   37     1    37    4.6650E-02  1.7072E-04   4.6479E-02  0.000E+00  0.000E+00  0.000E+00  1.29266E+02  2.158E-01  1.562E+00  2.385E-04  3.821E-04 -2.114E-04
   1    4   38     1    38    4.6479E-02  1.7042E-04   4.6309E-02  0.000E+00  0.000E+00  0.000E+00  1.28966E+02  2.155E-01  1.560E+00  2.382E-04  3.867E-04 -2.163E-04
   1    4   39     1    39    4.6309E-02  1.7011E-04   4.6139E-02  0.000E+00  0.000E+00  0.000E+00  1.28665E+02  2.152E-01  1.558E+00  2.378E-04  4.183E-04 -2.483E-04
   1    4   40     1    40    4.6139E-02  1.6981E-04   4.5969E-02  0.000E+00  0.000E+00  0.000E+00  1.28365E+02  2.149E-01  1.556E+00  2.375E-04  4.384E-04 -2.686E-04
   1    4   41     1    41    4.5969E-02  1.6950E-04   4.5800E-02  0.000E+00  0.000E+00  0.000E+00  1.28065E+02  2.146E-01  1.554E+00  2.372E-04  4.400E-04 -2.705E-04
   1    4   42     1    42    4.5800E-02  1.6920E-04   4.5630E-02  0.000E+00  0.000E+00  0.000E+00  1.27764E+02  2.143E-01  1.551E+00  2.369E-04  4.709E-04 -3.017E-04
   1    4   43     1    43    4.5630E-02  1.6889E-04   4.5461E-02  0.000E+00  0.000E+00  0.000E+00  1.27464E+02  2.140E-01  1.549E+00  2.365E-04  5.205E-04 -3.516E-04
   1    4   44     1    44    4.5461E-02  1.6859E-04   4.5293E-02  0.000E+00  0.000E+00  0.000E+00  1.27164E+02  2.138E-01  1.547E+00  2.362E-04  5.234E-04 -3.548E-04
   1    4   45     1    45    4.5293E-02  1.6828E-04   4.5125E-02  0.000E+00  0.000E+00  0.000E+00  1.26863E+02  2.135E-01  1.545E+00  2.359E-04  5.683E-04 -4.001E-04
   1    4   46     1    46    4.5125E-02  1.6798E-04   4.4957E-02  0.000E+00  0.000E+00  0.000E+00  1.26563E+02  2.132E-01  1.543E+00  2.355E-04  6.363E-04 -4.684E-04
   1    4   47     1    47    4.4957E-02  1.6767E-04   4.4789E-02  0.000E+00  0.000E+00  0.000E+00  1.26263E+02  2.129E-01  1.541E+00  2.352E-04  6.479E-04 -4.803E-04
   1    4   48     1    48    4.4789E-02  1.6737E-04   4.4622E-02  0.000E+00  0.000E+00  0.000E+00  1.25963E+02  2.126E-01  1.539E+00  2.349E-04  7.185E-04 -5.512E-04
   1    4   49     1    49    4.4622E-02  1.6706E-04   4.4455E-02  0.000E+00  0.000E+00  0.000E+00  1.25662E+02  2.123E-01  1.536E+00  2.346E-04  7.680E-04 -6.010E-04
   1    4   50     1    50    4.4455E-02  1.6676E-04   4.4288E-02  0.000E+00  0.000E+00  0.000E+00  1.25362E+02  2.120E-01  1.534E+00  2.342E-04  9.219E-04 -7.552E-04
   1    4   51     1    51    4.4288E-02  1.6645E-04   4.4121E-02  0.000E+00  0.000E+00  0.000E+00  1.25062E+02  2.117E-01  1.532E+00  2.339E-04  9.149E-04 -7.485E-04
   1    4   52     1    52    4.4121E-02  1.6615E-04   4.3955E-02  0.000E+00  0.000E+00  0.000E+00  1.24761E+02  2.114E-01  1.530E+00  2.336E-04  9.146E-04 -7.485E-04
   1    4   53     1    53    4.3955E-02  1.6584E-04   4.3789E-02  0.000E+00  0.000E+00  0.000E+00  1.24461E+02  2.111E-01  1.528E+00  2.332E-04  9.143E-04 -7.485E-04
   1    4   54     1    54    4.3789E-02  1.6554E-04   4.3624E-02  0.000E+00  0.000E+00  0.000E+00  1.24161E+02  2.108E-01  1.526E+00  2.329E-04  9.142E-04 -7.487E-04
   1    4   55     1    55    4.3624E-02  1.6523E-04   4.3459E-02  0.000E+00  0.000E+00  0.000E+00  1.23860E+02  2.105E-01  1.523E+00  2.326E-04  9.201E-04 -7.549E-04
   1    4   56     1    56    4.3459E-02  1.6493E-04   4.3294E-02  0.000E+00  0.000E+00  0.000E+00  1.23560E+02  2.102E-01  1.521E+00  2.322E-04  7.756E-04 -6.107E-04
   1    4   57     1    57    4.3294E-02  1.6462E-04   4.3129E-02  0.000E+00  0.000E+00  0.000E+00  1.23260E+02  2.099E-01  1.519E+00  2.319E-04  7.147E-04 -5.501E-04
   1    4   58     1    58    4.3129E-02  1.6432E-04   4.2965E-02  0.000E+00  0.000E+00  0.000E+00  1.22960E+02  2.096E-01  1.517E+00  2.316E-04  6.660E-04 -5.017E-04
   1    4   59     1    59    4.2965E-02  1.6401E-04   4.2801E-02  0.000E+00  0.000E+00  0.000E+00  1.22659E+02  2.093E-01  1.515E+00  2.312E-04  6.323E-04 -4.683E-04
   1    4   60     1    60    4.2801E-02  1.6371E-04   4.2637E-02  0.000E+00  0.000E+00  0.000E+00  1.22359E+02  2.090E-01  1.513E+00  2.309E-04  6.029E-04 -4.392E-04
   1    4   61     1    61    4.2637E-02  1.6340E-04   4.2474E-02  0.000E+00  0.000E+00  0.000E+00  1.22059E+02  2.087E-01  1.510E+00  2.306E-04  5.494E-04 -3.861E-04
   1    4   62     1    62    4.2474E-02  1.6310E-04   4.2310E-02  0.000E+00  0.000E+00  0.000E+00  1.21758E+02  2.084E-01  1.508E+00  2.302E-04  5.184E-04 -3.554E-04
   1    4   63     1    63    4.2310E-02  1.6279E-04   4.2148E-02  0.000E+00  0.000E+00  0.000E+00  1.21458E+02  2.081E-01  1.506E+00  2.299E-04  4.989E-04 -3.362E-04
   1    4   64     1    64    4.2148E-02  1.6249E-04   4.1985E-02  0.000E+00  0.000E+00  0.000E+00  1.21158E+02  2.078E-01  1.504E+00  2.296E-04  4.487E-04 -2.863E-04
   1    4   65     1    65    4.1985E-02  1.6219E-04   4.1823E-02  0.000E+00  0.000E+00  0.000E+00  1.20857E+02  2.075E-01  1.502E+00  2.292E-04  4.377E-04 -2.755E-04
   1    4   66     1    66    4.1823E-02  1.6188E-04   4.1661E-02  0.000E+00  0.000E+00  0.000E+00  1.20557E+02  2.072E-01  1.499E+00  2.289E-04  4.367E-04 -2.749E-04
   1    4   67     1    67    4.1661E-02  1.6158E-04   4.1500E-02  0.000E+00  0.000E+00  0.000E+00  1.20257E+02  2.069E-01  1.497E+00  2.286E-04  4.083E-04 -2.468E-04
   1    4   68     1    68    4.1500E-02  1.6127E-04   4.1338E-02  0.000E+00  0.000E+00  0.000E+00  1.19957E+02  2.066E-01  1.495E+00  2.283E-04  3.651E-04 -2.038E-04
   1    4   69     1    69    4.1338E-02  1.6097E-04   4.1177E-02  0.000E+00  0.000E+00  0.000E+00  1.19656E+02  2.063E-01  1.493E+00  2.279E-04  3.776E-04 -2.166E-04
   1    4   70     1    70    4.1177E-02  1.6066E-04   4.1017E-02  0.000E+00  0.000E+00  0.000E+00  1.19356E+02  2.060E-01  1.491E+00  2.276E-04  3.773E-04 -2.167E-04
   1    4   71     1    71    4.1017E-02  1.6036E-04   4.0856E-02  0.000E+00  0.000E+00  0.000E+00  1.19056E+02  2.057E-01  1.489E+00  2.273E-04  3.771E-04 -2.168E-04
   1    4   72     1    72    4.0856E-02  1.6006E-04   4.0696E-02  0.000E+00  0.000E+00  0.000E+00  1.18755E+02  2.054E-01  1.486E+00  2.269E-04  3.770E-04 -2.169E-04
   1    4   73     1    73    4.0696E-02  1.5975E-04   4.0536E-02  0.000E+00  0.000E+00  0.000E+00  1.18455E+02  2.050E-01  1.484E+00  2.266E-04  3.769E-04 -2.172E-04
   1    4   74     1    74    4.0536E-02  1.5945E-04   4.0377E-02  0.000E+00  0.000E+00  0.000E+00  1.18155E+02  2.047E-01  1.482E+00  2.262E-04  3.770E-04 -2.176E-04
   1    4   75     1    75    4.0377E-02  1.5914E-04   4.0218E-02  0.000E+00  0.000E+00  0.000E+00  1.17854E+02  2.044E-01  1.480E+00  2.259E-04  3.771E-04 -2.180E-04
   1    4   76     1    76    4.0218E-02  1.5884E-04   4.0059E-02  0.000E+00  0.000E+00  0.000E+00  1.17554E+02  2.041E-01  1.478E+00  2.256E-04  3.773E-04 -2.185E-04
   1    4   77     1    77    4.0059E-02  1.5853E-04   3.9901E-02  0.000E+00  0.000E+00  0.000E+00  1.17254E+02  2.038E-01  1.475E+00  2.252E-04  3.776E-04 -2.191E-04
   1    4   78     1    78    3.9901E-02  1.5823E-04   3.9742E-02  0.000E+00  0.000E+00  0.000E+00  1.16954E+02  2.035E-01  1.473E+00  2.249E-04  3.586E-04 -2.004E-04
   1    4   79     1    79    3.9742E-02  1.5793E-04   3.9584E-02  0.000E+00  0.000E+00  0.000E+00  1.16653E+02  2.032E-01  1.471E+00  2.246E-04  3.573E-04 -1.994E-04
   1    4   80     1    80    3.9584E-02  1.5762E-04   3.9427E-02  0.000E+00  0.000E+00  0.000E+00  1.16353E+02  2.029E-01  1.469E+00  2.242E-04  3.579E-04 -2.004E-04
   1    4   81     1    81    3.9427E-02  1.5732E-04   3.9269E-02  0.000E+00  0.000E+00  0.000E+00  1.16053E+02  2.026E-01  1.467E+00  2.239E-04  3.587E-04 -2.014E-04
   1    4   82     1    82    3.9269E-02  1.5702E-04   3.9112E-02  0.000E+00  0.000E+00  0.000E+00  1.15752E+02  2.023E-01  1.464E+00  2.236E-04  3.595E-04 -2.025E-04
   1    4   83     1    83    3.9112E-02  1.5671E-04   3.8956E-02  0.000E+00  0.000E+00  0.000E+00  1.15452E+02  2.020E-01  1.462E+00  2.232E-04  3.604E-04 -2.037E-04
   1    4   84     1    84    3.8956E-02  1.5641E-04   3.8799E-02  0.000E+00  0.000E+00  0.000E+00  1.15152E+02  2.017E-01  1.460E+00  2.229E-04  3.614E-04 -2.050E-04
   1    4   85     1    85    3.8799E-02  1.5610E-04   3.8643E-02  0.000E+00  0.000E+00  0.000E+00  1.14851E+02  2.014E-01  1.458E+00  2.226E-04  3.625E-04 -2.064E-04
   1    4   86     1    86    3.8643E-02  1.5580E-04   3.8487E-02  0.000E+00  0.000E+00  0.000E+00  1.14551E+02  2.011E-01  1.456E+00  2.222E-04  3.637E-04 -2.079E-04
   1    4   87     1    87    3.8487E-02  1.5550E-04   3.8332E-02  0.000E+00  0.000E+00  0.000E+00  1.14251E+02  2.008E-01  1.453E+00  2.219E-04  3.650E-04 -2.095E-04
   1    4   88     1    88    3.8332E-02  1.5519E-04   3.8177E-02  0.000E+00  0.000E+00  0.000E+00  1.13950E+02  2.005E-01  1.451E+00  2.215E-04  3.664E-04 -2.112E-04
   1    4   89     1    89    3.8177E-02  1.5489E-04   3.8022E-02  0.000E+00  0.000E+00  0.000E+00  1.13650E+02  2.002E-01  1.449E+00  2.212E-04  3.679E-04 -2.130E-04
   1    4   90     1    90    3.8022E-02  1.5459E-04   3.7867E-02  0.000E+00  0.000E+00  0.000E+00  1.13350E+02  1.999E-01  1.447E+00  2.209E-04  3.695E-04 -2.149E-04
   1    4   91     1    91    3.7867E-02  1.5428E-04   3.7713E-02  0.000E+00  0.000E+00  0.000E+00  1.13050E+02  1.996E-01  1.445E+00  2.205E-04  3.712E-04 -2.169E-04
   1    4   92     1    92    3.7713E-02  1.5398E-04   3.7559E-02  0.000E+00  0.000E+00  0.000E+00  1.12749E+02  1.993E-01  1.442E+00  2.202E-04  3.730E-04 -2.190E-04
   1    4   93     1    93    3.7559E-02  1.5367E-04   3.7405E-02  0.000E+00  0.000E+00  0.000E+00  1.12449E+02  1.990E-01  1.440E+00  2.199E-04  3.749E-04 -2.212E-04
   1    4   94     1    94    3.7405E-02  1.5337E-04   3.7252E-02  0.000E+00  0.000E+00  0.000E+00  1.12149E+02  1.987E-01  1.438E+00  2.195E-04  3.769E-04 -2.235E-04
   1    4   95     1    95    3.7252E-02  1.5307E-04   3.7099E-02  0.000E+00  0.000E+00  0.000E+00  1.11848E+02  1.984E-01  1.436E+00  2.192E-04  3.789E-04 -2.259E-04
   1    4   96     1    96    3.7099E-02  1.5276E-04   3.6946E-02  0.000E+00  0.000E+00  0.000E+00  1.11548E+02  1.980E-01  1.433E+00  2.188E-04  3.811E-04 -2.284E-04
   1    4   97     1    97    3.6946E-02  1.5246E-04   3.6794E-02  0.000E+00  0.000E+00  0.000E+00  1.11248E+02  1.977E-01  1.431E+00  2.185E-04  3.833E-04 -2.309E-04
   1    4   98     1    98    3.6794E-02  1.5216E-04   3.6641E-02  0.000E+00  0.000E+00  0.000E+00  1.10947E+02  1.974E-01  1.429E+00  2.182E-04  3.855E-04 -2.334E-04
   1    4   99     1    99    3.6641E-02  1.5185E-04   3.6490E-02  0.000E+00  0.000E+00  0.000E+00  1.10647E+02  1.971E-01  1.427E+00  2.178E-04  3.878E-04 -2.360E-04
   1    4  100     1   100    3.6490E-02  1.5155E-04   3.6338E-02  0.000E+00  0.000E+00  0.000E+00  1.10347E+02  1.968E-01  1.425E+00  2.175E-04  3.901E-04 -2.386E-04



1
  VOLUMETRIC BUDGET FOR UNSATURATED ZONE BENEATH STREAMS AT END OF TIME STEP    30 STRESS PERIOD  35
  ------------------------------------------------------------------------------------------------

    CUMULATIVE VOLUMES             L**3    RATES FOR THIS TIME STEP         L**3/T
    ------------------                     ------------------------


          STREAM LOSS =     30216106.0000            STREAM LOSS =        1.6662E-02
    CHANGE IN STORAGE =       995074.6250      CHANGE IN STORAGE =       -2.7476E-02
       RECHARGE TO GW =     29228366.0000         RECHARGE TO GW =        4.4134E-02

             TOTAL IN =     30216106.0000               TOTAL IN =        4.4138E-02

            TOTAL OUT =     30223440.0000              TOTAL OUT =        4.4134E-02

             IN - OUT =        -7334.0000               IN - OUT =        4.0159E-06

  PERCENT DISCREPANCY =           -0.01      PERCENT DISCREPANCY =             0.00



1
              HEAD IN LAYER 1 AT END OF TIME STEP 30 IN STRESS PERIOD 35
  ---------------------------------------------------------------------------

          1      2      3      4      5      6      7      8      9     10
         11     12     13     14     15     16     17     18     19     20
         21     22     23     24     25     26     27     28     29     30
         31     32     33     34     35     36     37     38     39     40
         41     42     43     44     45     46     47     48     49     50
         51     52     53     54     55     56     57     58     59     60
         61     62     63     64     65     66     67     68     69     70
         71     72     73     74     75     76     77     78     79     80
         81     82     83     84     85     86     87     88     89     90
         91     92     93     94     95     96     97     98     99    100
 .........................................................................
   1  90.4 90.3 90.2 90.1 90.0 89.8 89.5 89.2 88.9 88.5
      88.1 87.7 87.2 86.7 86.1 85.4 84.8 84.1 83.3 82.5
      81.6 80.7 79.7 78.7 77.6 76.5 75.3 74.1 72.7 71.4
      69.9 68.4 66.8 65.1 63.3 61.4 59.4 57.3 55.1 52.8
      50.3 47.6 44.7 41.6 38.2 34.4 30.2 25.2 19.2 12.5
      11.5 11.6 11.7 12.3 14.1 17.9 22.1 25.9 29.3 32.4
      35.3 37.8 40.2 42.4 44.5 46.4 48.2 49.9 51.4 52.9
      54.4 55.7 57.0 58.2 59.3 60.4 61.4 62.4 63.3 64.2
      65.0 65.8 66.5 67.2 67.9 68.5 69.1 69.7 70.2 70.8
      71.3 71.7 72.2 72.6 73.1 73.5 73.9 74.2 74.6 75.0
   2  90.4 90.3 90.2 90.1 90.0 89.8 89.5 89.2 88.9 88.5
      88.1 87.7 87.2 86.7 86.1 85.4 84.8 84.1 83.3 82.5
      81.6 80.7 79.7 78.7 77.6 76.5 75.3 74.1 72.7 71.4
      69.9 68.4 66.8 65.1 63.3 61.4 59.4 57.3 55.1 52.8
      50.3 47.6 44.7 41.6 38.2 34.4 30.2 25.2 19.0 10.6
      11.2 11.6 11.7 12.0 13.4 17.7 22.0 25.9 29.3 32.4
      35.3 37.8 40.2 42.4 44.5 46.4 48.2 49.9 51.4 52.9
      54.4 55.7 57.0 58.2 59.3 60.4 61.4 62.4 63.3 64.2
      65.0 65.8 66.5 67.2 67.9 68.5 69.1 69.7 70.2 70.8
      71.3 71.7 72.2 72.6 73.1 73.5 73.9 74.2 74.6 75.0
   3  90.4 90.3 90.2 90.1 90.0 89.8 89.5 89.2 88.9 88.5
      88.1 87.7 87.2 86.7 86.1 85.4 84.8 84.1 83.3 82.5
      81.6 80.7 79.7 78.7 77.6 76.5 75.3 74.1 72.7 71.4
      69.9 68.4 66.8 65.1 63.3 61.4 59.4 57.3 55.1 52.8
      50.3 47.6 44.7 41.6 38.2 34.5 30.2 25.3 18.8 5.1
      11.1 11.6 11.5 11.4 11.9 17.2 21.8 25.8 29.3 32.4
      35.3 37.8 40.2 42.4 44.5 46.4 48.2 49.9 51.5 53.0
      54.4 55.7 57.0 58.2 59.3 60.4 61.4 62.4 63.3 64.2
      65.0 65.8 66.5 67.2 67.9 68.5 69.1 69.7 70.2 70.8
      71.3 71.7 72.2 72.6 73.1 73.5 73.9 74.2 74.6 75.0
   4  90.4 90.3 90.2 90.1 90.0 89.8 89.5 89.2 88.9 88.5
      88.1 87.7 87.2 86.7 86.1 85.4 84.8 84.1 83.3 82.5
      81.6 80.7 79.7 78.7 77.6 76.5 75.3 74.1 72.7 71.4
      69.9 68.4 66.8 65.1 63.3 61.4 59.4 57.3 55.1 52.8
      50.3 47.6 44.7 41.6 38.2 34.5 30.3 25.4 19.4 10.8
      11.8 11.8 11.5 10.8 9.3 16.6 21.7 25.8 29.3 32.4
      35.3 37.8 40.2 42.4 44.5 46.4 48.2 49.9 51.5 53.0
      54.4 55.7 57.0 58.2 59.3 60.4 61.4 62.4 63.3 64.2
      65.0 65.8 66.5 67.2 67.9 68.5 69.1 69.7 70.2 70.8
      71.3 71.7 72.2 72.6 73.1 73.5 73.9 74.2 74.6 75.0
   5  90.4 90.3 90.2 90.1 90.0 89.8 89.5 89.2 88.9 88.5
      88.1 87.7 87.2 86.7 86.1 85.4 84.8 84.1 83.3 82.5
      81.6 80.7 79.7 78.7 77.6 76.5 75.3 74.1 72.7 71.4
      69.9 68.4 66.8 65.1 63.3 61.4 59.4 57.3 55.1 52.8
      50.3 47.6 44.7 41.6 38.2 34.5 30.3 25.6 20.0 13.7
      12.5 11.9 11.4 10.2 4.3 16.1 21.6 25.7 29.3 32.4
      35.2 37.8 40.2 42.4 44.5 46.4 48.2 49.9 51.5 53.0
      54.4 55.7 57.0 58.2 59.3 60.4 61.4 62.4 63.3 64.2
      65.0 65.8 66.5 67.2 67.9 68.5 69.1 69.7 70.2 70.8
      71.3 71.7 72.2 72.6 73.1 73.5 73.9 74.2 74.6 75.0
   6  90.4 90.3 90.2 90.1 90.0 89.8 89.5 89.2 88.9 88.5
      88.1 87.7 87.2 86.7 86.1 85.4 84.8 84.1 83.3 82.5
      81.6 80.7 79.7 78.7 77.6 76.5 75.3 74.1 72.7 71.4
      69.9 68.4 66.8 65.1 63.3 61.4 59.4 57.3 55.1 52.8
      50.3 47.6 44.7 41.6 38.2 34.5 30.4 25.7 20.6 15.4
      13.2 12.1 11.4 10.4 9.2 16.3 21.5 25.7 29.3 32.4
      35.2 37.8 40.2 42.4 44.5 46.4 48.2 49.9 51.4 52.9
      54.4 55.7 57.0 58.2 59.3 60.4 61.4 62.4 63.3 64.2
      65.0 65.8 66.5 67.2 67.9 68.5 69.1 69.7 70.2 70.8
      71.3 71.7 72.2 72.6 73.1 73.5 73.9 74.2 74.6 75.0
   7  90.4 90.3 90.2 90.1 90.0 89.8 89.5 89.2 88.9 88.5
      88.1 87.7 87.2 86.7 86.1 85.4 84.8 84.1 83.3 82.5
      81.6 80.7 79.7 78.7 77.6 76.5 75.3 74.1 72.7 71.4
      69.9 68.4 66.8 65.1 63.3 61.4 59.4 57.3 55.1 52.8
      50.3 47.6 44.7 41.6 38.2 34.5 30.4 25.8 20.9 16.1
      13.5 12.2 11.4 10.6 10.8 16.5 21.5 25.7 29.3 32.4
      35.2 37.8 40.2 42.4 44.5 46.4 48.2 49.9 51.4 52.9
      54.4 55.7 57.0 58.2 59.3 60.4 61.4 62.4 63.3 64.2
      65.0 65.8 66.5 67.2 67.9 68.5 69.1 69.7 70.2 70.8
      71.3 71.7 72.2 72.6 73.1 73.5 73.9 74.2 74.6 75.0

 HEAD WILL BE SAVED ON UNIT   51 AT END OF TIME STEP   30, STRESS PERIOD   35
1
  VOLUMETRIC BUDGET FOR ENTIRE MODEL AT END OF TIME STEP   30, STRESS PERIOD  35
  ------------------------------------------------------------------------------

     CUMULATIVE VOLUMES      L**3       RATES FOR THIS TIME STEP      L**3/T
     ------------------                 ------------------------

           IN:                                      IN:
           ---                                      ---
             STORAGE     =   105008344.0000               STORAGE     =           0.5057
       CONSTANT HEAD     =           0.0000         CONSTANT HEAD     =           0.0000
               WELLS     =           0.0000                 WELLS     =           0.0000
     HEAD DEP BOUNDS     =      852782.3750       HEAD DEP BOUNDS     =       6.6741E-02
      STREAM LEAKAGE     =    29228110.0000        STREAM LEAKAGE     =       4.4134E-02

                TOTAL IN =   135089232.0000                  TOTAL IN =           0.6166

          OUT:                                     OUT:
          ----                                     ----
             STORAGE     =     3300969.2500               STORAGE     =       1.6553E-03
       CONSTANT HEAD     =           0.0000         CONSTANT HEAD     =           0.0000
               WELLS     =   115402384.0000                 WELLS     =           0.6149
     HEAD DEP BOUNDS     =    16385952.0000       HEAD DEP BOUNDS     =           0.0000
      STREAM LEAKAGE     =           0.0000        STREAM LEAKAGE     =           0.0000

               TOTAL OUT =   135089312.0000                 TOTAL OUT =           0.6166

                IN - OUT =         -80.0000                  IN - OUT =           0.0000

     PERCENT DISCREPANCY =          -0.00         PERCENT DISCREPANCY =           0.00






         TIME SUMMARY AT END OF TIME STEP   30 IN STRESS PERIOD   35
                    SECONDS     MINUTES      HOURS       DAYS        YEARS
                    -----------------------------------------------------------
   TIME STEP LENGTH 2.49961E+05  4166.0      69.434      2.8931     7.92080E-03
 STRESS PERIOD TIME 2.59200E+06  43200.      720.00      30.000     8.21355E-02
         TOTAL TIME 9.07200E+07 1.51200E+06  25200.      1050.0      2.8747    
1
1
                            STRESS PERIOD NO.   36, LENGTH =   2592000.    
                            -----------------------------------------------

                              NUMBER OF TIME STEPS =    30

                               MULTIPLIER FOR DELT =     1.100

                            INITIAL TIME STEP SIZE =   15757.40    

 REUSING NON-PARAMETER WELLS FROM LAST STRESS PERIOD

      1 WELL 

 REUSING NON-PARAMETER GHB CELLS FROM LAST STRESS PERIOD

      7 GHB CELLS



 CLASSIFICATION & COUNT OF STREAM SEGMENTS BASED ON SOURCE OF INFLOW:

                HEADWATER     DIVERSION     RECEIVES TRIBUTARY FLOW
                ---------     ---------     -----------------------
                     1              0               0



                    INPUT DATA FOR EACH STREAM SEGMENT
 ---------------------------------------------------------------------------------------------

 SEGMENT    SEG.     INFLOW   OVERLAND   STREAM    STREAM   ICALC  OUTFLOW  DIVERSION PRIORITY
    NO.    LENGTH     RATE     RUNOFF      ET       PPT.    METH.  TO SEG.  FROM SEG.    NO.

      1  2.000E+04 1.600E-02 0.000E+00 0.000E+00 0.000E+00    2        0        0        0


         STREAMBED PROPERTIES AND STREAM DIMENSIONS

 SEGMENT     BED HYD. COND.      BED THICKNESS     ELEV.-TOP OF BED     WIDTH OF STREAM     DEPTH OF STREAM    STREAM ROUGHNESS
    No.     UPPER     LOWER     UPPER     LOWER     UPPER     LOWER     UPPER     LOWER     UPPER     LOWER   CHANNEL      BANK

     1  3.500E-07 3.500E-07                                                                                 3.000E-02 4.000E-02

  EIGHT POINT CROSS-SECTION DATA FOR SEGMENTS WITH ICALC = 2
    X VALUES X VALUES START FROM LEFT SIDE LOOKING DOWNSTREAM

     SEGMENT NO.        X1        X2        X3        X4        X5        X6        X7        X8
            1      0.000E+00 2.000E+00 4.000E+00 6.000E+00 8.000E+00 1.000E+01 1.200E+01 1.400E+01

    Z VALUES ARE RELATIVE TO STREAMBED ELEVATION

     SEGMENT NO.          Z1        Z2        Z3        Z4        Z5        Z6        Z7        Z8
            1      6.000E+00 4.500E+00 3.500E+00 0.000E+00 3.000E-01 3.500E+00 4.500E+00 6.000E+00



 
 SOLVING FOR HEAD 
                                                   Max.-Head-Change                         Max.-Flux-Residual
  Residual-Control   Outer-Iter.   Inner-Iter.     Column Row Layer    Maximum-Head-Change  Column Row Layer    Maximum-Flux-Residual          L2-NORM 
          0                 1           2            50    3     1       0.4100467928E+00      50    3    1         0.1274044189E+00      0.1622620262E+00
          0                 2           2            50    3     1      -0.4073959741E-01      50    3    1        -0.1290693823E-01      0.1654210748E-01
          0                 3           2            50    3     1       0.3625667012E-02      50    3    1         0.1161160203E-02      0.1488005046E-02
          0                 4           2            50    3     1      -0.2877048856E-03      50    3    1        -0.9301287761E-04      0.1192442200E-03
          0                 5           1            50    3     1       0.2004158934E-04      50    3    1         0.6538691278E-05      0.8384998261E-05
          0                 6           1            50    3     1      -0.1203443168E-05      50    3    1        -0.3962188917E-06      0.5082138038E-06
          0                 7           1            50    3     1       0.6080839426E-07      50    3    1         0.2020323070E-07      0.2591801110E-07

    ------------------------------------------------
       NWT REQUIRED            7 OUTER ITERATIONS 
       AND A TOTAL OF         11 INNER ITERATIONS.
    ------------------------------------------------

 NO OUTPUT CONTROL FOR STRESS PERIOD   36   TIME STEP    1
 
 WELLS WITH REDUCED PUMPING FOR STRESS PERIOD    36 TIME STEP     1
   LAY   ROW   COL         APPL.Q          ACT.Q        GW-HEAD       CELL-BOT
     1     3    50  -0.500082E+00  -0.244739E+00   0.552082E+01   0.000000E+00
     1     5    55  -0.500082E+00  -0.188501E+00   0.463095E+01   0.000000E+00
 
 
 SOLVING FOR HEAD 
                                                   Max.-Head-Change                         Max.-Flux-Residual
  Residual-Control   Outer-Iter.   Inner-Iter.     Column Row Layer    Maximum-Head-Change  Column Row Layer    Maximum-Flux-Residual          L2-NORM 
          0                 1           2            50    3     1       0.2973167935E+00      50    3    1         0.8514118067E-01      0.1109227519E+00
          0                 2           2            50    3     1      -0.2908072163E-01      50    3    1        -0.8564724473E-02      0.1118827603E-01
          0                 3           2            50    3     1       0.2582591933E-02      50    3    1         0.7709048305E-03      0.1007753252E-02
          0                 4           2            50    3     1      -0.2048148026E-03      50    3    1        -0.6174858443E-04      0.8079411338E-04
          0                 5           1            50    3     1       0.1426675469E-04      50    3    1         0.4340872122E-05      0.5683609147E-05
          0                 6           1            50    3     1      -0.8566806630E-06      50    3    1        -0.2630394993E-06      0.3446013490E-06

    ------------------------------------------------
       NWT REQUIRED            6 OUTER ITERATIONS 
       AND A TOTAL OF         10 INNER ITERATIONS.
    ------------------------------------------------

 NO OUTPUT CONTROL FOR STRESS PERIOD   36   TIME STEP    2
 
 WELLS WITH REDUCED PUMPING FOR STRESS PERIOD    36 TIME STEP     2
   LAY   ROW   COL         APPL.Q          ACT.Q        GW-HEAD       CELL-BOT
     1     3    50  -0.500082E+00  -0.262859E+00   0.579145E+01   0.000000E+00
     1     5    55  -0.500082E+00  -0.202821E+00   0.484750E+01   0.000000E+00
 
 
 SOLVING FOR HEAD 
                                                   Max.-Head-Change                         Max.-Flux-Residual
  Residual-Control   Outer-Iter.   Inner-Iter.     Column Row Layer    Maximum-Head-Change  Column Row Layer    Maximum-Flux-Residual          L2-NORM 
          0                 1           2            50    3     1       0.2144063837E+00      50    3    1         0.5628558493E-01      0.7668319874E-01
          0                 2           2            50    3     1      -0.2068331457E-01      50    3    1        -0.5642387243E-02      0.7639266783E-02
          0                 3           2            50    3     1       0.1830451631E-02      50    3    1         0.5079415280E-03      0.6888115807E-03
          0                 4           2            50    3     1      -0.1450347365E-03      50    3    1        -0.4068478190E-04      0.5527921271E-04
          0                 5           1            50    3     1       0.1010143760E-04      50    3    1         0.2860109854E-05      0.3892388148E-05
          0                 6           1            50    3     1      -0.6065629590E-06      50    3    1        -0.1733108350E-06      0.2361920530E-06

    ------------------------------------------------
       NWT REQUIRED            6 OUTER ITERATIONS 
       AND A TOTAL OF         10 INNER ITERATIONS.
    ------------------------------------------------

 NO OUTPUT CONTROL FOR STRESS PERIOD   36   TIME STEP    3
 
 WELLS WITH REDUCED PUMPING FOR STRESS PERIOD    36 TIME STEP     3
   LAY   ROW   COL         APPL.Q          ACT.Q        GW-HEAD       CELL-BOT
     1     3    50  -0.499936E+00  -0.275830E+00   0.598687E+01   0.000000E+00
     1     5    55  -0.499936E+00  -0.213298E+00   0.500547E+01   0.000000E+00
 
 
 SOLVING FOR HEAD 
                                                   Max.-Head-Change                         Max.-Flux-Residual
  Residual-Control   Outer-Iter.   Inner-Iter.     Column Row Layer    Maximum-Head-Change  Column Row Layer    Maximum-Flux-Residual          L2-NORM 
          0                 1           2            50    3     1       0.1539695641E+00      50    3    1         0.3682421703E-01      0.5458112270E-01
          0                 2           2            50    3     1      -0.1465104790E-01      50    3    1        -0.3684485818E-02      0.5357219671E-02
          0                 3           2            50    3     1       0.1290453433E-02      50    3    1         0.3316898211E-03      0.4834519983E-03
          0                 4           1            50    3     1      -0.1021095689E-03      50    3    1        -0.2656741518E-04      0.3887347941E-04
          0                 5           1            50    3     1       0.7109990685E-05      50    3    1         0.1867653230E-05      0.2742645507E-05
          0                 6           1            50    3     1      -0.4269285914E-06      50    3    1        -0.1131713684E-06      0.1667234717E-06

    ------------------------------------------------
       NWT REQUIRED            6 OUTER ITERATIONS 
       AND A TOTAL OF          9 INNER ITERATIONS.
    ------------------------------------------------

 NO OUTPUT CONTROL FOR STRESS PERIOD   36   TIME STEP    4
 
 WELLS WITH REDUCED PUMPING FOR STRESS PERIOD    36 TIME STEP     4
   LAY   ROW   COL         APPL.Q          ACT.Q        GW-HEAD       CELL-BOT
     1     3    50  -0.500069E+00  -0.285251E+00   0.612738E+01   0.000000E+00
     1     5    55  -0.500069E+00  -0.221001E+00   0.511950E+01   0.000000E+00
 
 
 SOLVING FOR HEAD 
                                                   Max.-Head-Change                         Max.-Flux-Residual
  Residual-Control   Outer-Iter.   Inner-Iter.     Column Row Layer    Maximum-Head-Change  Column Row Layer    Maximum-Flux-Residual          L2-NORM 
          0                 1           2            50    3     1       0.1115514804E+00      50    3    1         0.2413895976E-01      0.4121903718E-01
          0                 2           2            50    3     1      -0.1046770812E-01      50    3    1        -0.2412008375E-02      0.3990282303E-02
          0                 3           2            50    3     1       0.9166138674E-03      50    3    1         0.2171349615E-03      0.3603234403E-03
          0                 4           1            50    3     1      -0.7239056156E-04      50    3    1        -0.1739191182E-04      0.2906113693E-04
          0                 5           1            50    3     1       0.5038458479E-05      50    3    1         0.1222612858E-05      0.2057386527E-05
          0                 6           1            50    3     1      -0.3025271595E-06      50    3    1        -0.7408392355E-07      0.1254667743E-06

    ------------------------------------------------
       NWT REQUIRED            6 OUTER ITERATIONS 
       AND A TOTAL OF          9 INNER ITERATIONS.
    ------------------------------------------------

 NO OUTPUT CONTROL FOR STRESS PERIOD   36   TIME STEP    5
 
 WELLS WITH REDUCED PUMPING FOR STRESS PERIOD    36 TIME STEP     5
   LAY   ROW   COL         APPL.Q          ACT.Q        GW-HEAD       CELL-BOT
     1     3    50  -0.500034E+00  -0.291984E+00   0.622932E+01   0.000000E+00
     1     5    55  -0.500034E+00  -0.226532E+00   0.520199E+01   0.000000E+00
 
 
 SOLVING FOR HEAD 
                                                   Max.-Head-Change                         Max.-Flux-Residual
  Residual-Control   Outer-Iter.   Inner-Iter.     Column Row Layer    Maximum-Head-Change  Column Row Layer    Maximum-Flux-Residual          L2-NORM 
          0                 1           2            50    3     1       0.8203124296E-01      50    3    1         0.1594299495E-01      0.3348559469E-01
          0                 2           2            50    3     1      -0.7590355914E-02      50    3    1        -0.1591082640E-02      0.3215972380E-02
          0                 3           2            50    3     1       0.6601852185E-03      50    3    1         0.1432353955E-03      0.2905540612E-03
          0                 4           1            50    3     1      -0.5200770526E-04      50    3    1        -0.1147275206E-04      0.2352254386E-04
          0                 5           1            50    3     1       0.3617344602E-05      50    3    1         0.8064930677E-06      0.1672936355E-05
          0                 6           1            50    3     1      -0.2171767423E-06      50    3    1        -0.4886825289E-07      0.1024727198E-06

    ------------------------------------------------
       NWT REQUIRED            6 OUTER ITERATIONS 
       AND A TOTAL OF          9 INNER ITERATIONS.
    ------------------------------------------------

 NO OUTPUT CONTROL FOR STRESS PERIOD   36   TIME STEP    6
 
 WELLS WITH REDUCED PUMPING FOR STRESS PERIOD    36 TIME STEP     6
   LAY   ROW   COL         APPL.Q          ACT.Q        GW-HEAD       CELL-BOT
     1     3    50  -0.499971E+00  -0.296902E+00   0.630437E+01   0.000000E+00
     1     5    55  -0.499971E+00  -0.230557E+00   0.526218E+01   0.000000E+00
 
 
 SOLVING FOR HEAD 
                                                   Max.-Head-Change                         Max.-Flux-Residual
  Residual-Control   Outer-Iter.   Inner-Iter.     Column Row Layer    Maximum-Head-Change  Column Row Layer    Maximum-Flux-Residual          L2-NORM 
          0                 1           2            50    3     1       0.6154849661E-01      50    3    1         0.1066392211E-01      0.2912266978E-01
          0                 2           2            50    3     1      -0.5617977281E-02      50    3    1        -0.1062881989E-02      0.2793551666E-02
          0                 3           2            50    3     1       0.4850289040E-03      50    3    1         0.9568968182E-04      0.2525098380E-03
          0                 4           1            50    2     1      -0.3821690899E-04      50    3    1        -0.7664443979E-05      0.2051818118E-04
          0                 5           1            50    2     1       0.2661486211E-05      50    3    1         0.5387673179E-06      0.1466331929E-05
          0                 6           1            50    2     1      -0.1598073076E-06      50    3    1        -0.3264482107E-07      0.9025167921E-07

    ------------------------------------------------
       NWT REQUIRED            6 OUTER ITERATIONS 
       AND A TOTAL OF          9 INNER ITERATIONS.
    ------------------------------------------------

 NO OUTPUT CONTROL FOR STRESS PERIOD   36   TIME STEP    7
 
 WELLS WITH REDUCED PUMPING FOR STRESS PERIOD    36 TIME STEP     7
   LAY   ROW   COL         APPL.Q          ACT.Q        GW-HEAD       CELL-BOT
     1     3    50  -0.499943E+00  -0.300595E+00   0.636075E+01   0.000000E+00
     1     5    55  -0.499943E+00  -0.233549E+00   0.530676E+01   0.000000E+00
 
 
 SOLVING FOR HEAD 
                                                   Max.-Head-Change                         Max.-Flux-Residual
  Residual-Control   Outer-Iter.   Inner-Iter.     Column Row Layer    Maximum-Head-Change  Column Row Layer    Maximum-Flux-Residual          L2-NORM 
          0                 1           2            50    2     1       0.5134771085E-01      50    3    1         0.7263131012E-02      0.2664168207E-01
          0                 2           2            50    2     1      -0.5046834310E-02      50    3    1        -0.7229562027E-03      0.2562314487E-02
          0                 3           2            50    2     1       0.4482155246E-03      50    3    1         0.6509214178E-04      0.2317278151E-03
          0                 4           1            50    2     1      -0.3552769216E-04      50    3    1        -0.5213639996E-05      0.1888864452E-04
          0                 5           1            50    2     1       0.2473947329E-05      50    3    1         0.3664742739E-06      0.1355800006E-05
          0                 6           1            50    2     1      -0.1485416020E-06      50    3    1        -0.2220430473E-07      0.8382985099E-07

    ------------------------------------------------
       NWT REQUIRED            6 OUTER ITERATIONS 
       AND A TOTAL OF          9 INNER ITERATIONS.
    ------------------------------------------------

 NO OUTPUT CONTROL FOR STRESS PERIOD   36   TIME STEP    8
 
 WELLS WITH REDUCED PUMPING FOR STRESS PERIOD    36 TIME STEP     8
   LAY   ROW   COL         APPL.Q          ACT.Q        GW-HEAD       CELL-BOT
     1     3    50  -0.499956E+00  -0.303453E+00   0.640417E+01   0.000000E+00
     1     5    55  -0.499956E+00  -0.235830E+00   0.534049E+01   0.000000E+00
 
 
 SOLVING FOR HEAD 
                                                   Max.-Head-Change                         Max.-Flux-Residual
  Residual-Control   Outer-Iter.   Inner-Iter.     Column Row Layer    Maximum-Head-Change  Column Row Layer    Maximum-Flux-Residual          L2-NORM 
          0                 1           2            50    2     1       0.4733363002E-01      50    2    1         0.5476940562E-02      0.2517697030E-01
          0                 2           2            50    2     1      -0.4652796223E-02      50    2    1        -0.5495869247E-03      0.2429282392E-02
          0                 3           2            50    2     1       0.4130468045E-03      50    2    1         0.4944180959E-04      0.2197978445E-03
          0                 4           1            50    2     1      -0.3273197388E-04      50    2    1        -0.3960464318E-05      0.1796234778E-04
          0                 5           1            50    2     1       0.2278968114E-05      50    2    1         0.2784156822E-06      0.1294232579E-05
          0                 6           1            50    2     1      -0.1368275972E-06      50    2    1        -0.1687089568E-07      0.8035562153E-07

    ------------------------------------------------
       NWT REQUIRED            6 OUTER ITERATIONS 
       AND A TOTAL OF          9 INNER ITERATIONS.
    ------------------------------------------------

 NO OUTPUT CONTROL FOR STRESS PERIOD   36   TIME STEP    9
 
 WELLS WITH REDUCED PUMPING FOR STRESS PERIOD    36 TIME STEP     9
   LAY   ROW   COL         APPL.Q          ACT.Q        GW-HEAD       CELL-BOT
     1     3    50  -0.499979E+00  -0.305725E+00   0.643862E+01   0.000000E+00
     1     5    55  -0.499979E+00  -0.237612E+00   0.536674E+01   0.000000E+00
 
 
 SOLVING FOR HEAD 
                                                   Max.-Head-Change                         Max.-Flux-Residual
  Residual-Control   Outer-Iter.   Inner-Iter.     Column Row Layer    Maximum-Head-Change  Column Row Layer    Maximum-Flux-Residual          L2-NORM 
          0                 1           2            50    2     1       0.4353883595E-01      50    2    1         0.4589738502E-02      0.2425961542E-01
          0                 2           2            50    2     1      -0.4278584460E-02      50    2    1        -0.4606568249E-03      0.2347006784E-02
          0                 3           2            50    2     1       0.3796583679E-03      50    2    1         0.4144069871E-04      0.2124439717E-03
          0                 4           1            50    2     1      -0.3007723257E-04      50    2    1        -0.3319553091E-05      0.1739883553E-04
          0                 5           1            50    2     1       0.2093774516E-05      50    2    1         0.2333603866E-06      0.1257820704E-05
          0                 6           1            50    2     1      -0.1256992045E-06      50    2    1        -0.1414072170E-07      0.7839258993E-07

    ------------------------------------------------
       NWT REQUIRED            6 OUTER ITERATIONS 
       AND A TOTAL OF          9 INNER ITERATIONS.
    ------------------------------------------------

 NO OUTPUT CONTROL FOR STRESS PERIOD   36   TIME STEP   10
 
 WELLS WITH REDUCED PUMPING FOR STRESS PERIOD    36 TIME STEP    10
   LAY   ROW   COL         APPL.Q          ACT.Q        GW-HEAD       CELL-BOT
     1     3    50  -0.499958E+00  -0.307568E+00   0.646700E+01   0.000000E+00
     1     5    55  -0.499958E+00  -0.239034E+00   0.538795E+01   0.000000E+00
 
 
 SOLVING FOR HEAD 
                                                   Max.-Head-Change                         Max.-Flux-Residual
  Residual-Control   Outer-Iter.   Inner-Iter.     Column Row Layer    Maximum-Head-Change  Column Row Layer    Maximum-Flux-Residual          L2-NORM 
          0                 1           2            50    2     1       0.4006913184E-01      50    2    1         0.3838067437E-02      0.2362179006E-01
          0                 2           2            50    2     1      -0.3936190430E-02      50    2    1        -0.3852053738E-03      0.2289679463E-02
          0                 3           2            50    2     1       0.3491061583E-03      50    2    1         0.3465329941E-04      0.2073203966E-03
          0                 4           1            50    2     1      -0.2764609837E-04      50    2    1        -0.2775855468E-05      0.1701189081E-04
          0                 5           1            50    2     1       0.1924042886E-05      50    2    1         0.1951391422E-06      0.1233651235E-05
          0                 6           1            50    2     1      -0.1154945295E-06      50    2    1        -0.1182466466E-07      0.7716685167E-07

    ------------------------------------------------
       NWT REQUIRED            6 OUTER ITERATIONS 
       AND A TOTAL OF          9 INNER ITERATIONS.
    ------------------------------------------------

 NO OUTPUT CONTROL FOR STRESS PERIOD   36   TIME STEP   11
 
 WELLS WITH REDUCED PUMPING FOR STRESS PERIOD    36 TIME STEP    11
   LAY   ROW   COL         APPL.Q          ACT.Q        GW-HEAD       CELL-BOT
     1     3    50  -0.500016E+00  -0.309161E+00   0.649083E+01   0.000000E+00
     1     5    55  -0.500016E+00  -0.240242E+00   0.540544E+01   0.000000E+00
 
 
 SOLVING FOR HEAD 
                                                   Max.-Head-Change                         Max.-Flux-Residual
  Residual-Control   Outer-Iter.   Inner-Iter.     Column Row Layer    Maximum-Head-Change  Column Row Layer    Maximum-Flux-Residual          L2-NORM 
          0                 1           2            50    1     1       0.3833486001E-01      50    2    1         0.3211196129E-02      0.2316382281E-01
          0                 2           2            50    1     1      -0.3794480161E-02      50    2    1        -0.3222246971E-03      0.2248024012E-02
          0                 3           2            50    1     1       0.3379375160E-03      50    2    1         0.2898825695E-04      0.2036170782E-03
          0                 4           1            50    1     1      -0.2680720134E-04      50    2    1        -0.2322058926E-05      0.1673736314E-04
          0                 5           1            50    1     1       0.1866075291E-05      50    2    1         0.1632378545E-06      0.1217210591E-05
          0                 6           1            50    1     1      -0.1119852939E-06      50    2    1        -0.9891572339E-08      0.7640361033E-07

    ------------------------------------------------
       NWT REQUIRED            6 OUTER ITERATIONS 
       AND A TOTAL OF          9 INNER ITERATIONS.
    ------------------------------------------------

 NO OUTPUT CONTROL FOR STRESS PERIOD   36   TIME STEP   12
 
 WELLS WITH REDUCED PUMPING FOR STRESS PERIOD    36 TIME STEP    12
   LAY   ROW   COL         APPL.Q          ACT.Q        GW-HEAD       CELL-BOT
     1     3    50  -0.500025E+00  -0.310514E+00   0.651149E+01   0.000000E+00
     1     5    55  -0.500025E+00  -0.241253E+00   0.542034E+01   0.000000E+00
 
 
 SOLVING FOR HEAD 
                                                   Max.-Head-Change                         Max.-Flux-Residual
  Residual-Control   Outer-Iter.   Inner-Iter.     Column Row Layer    Maximum-Head-Change  Column Row Layer    Maximum-Flux-Residual          L2-NORM 
          0                 1           2            50    1     1       0.3749745690E-01      50    1    1         0.2790911558E-02      0.2282127511E-01
          0                 2           2            50    1     1      -0.3711431979E-02      50    1    1        -0.2796308751E-03      0.2215624124E-02
          0                 3           2            50    1     1       0.3304694183E-03      50    1    1         0.2516128137E-04      0.2007333992E-03
          0                 4           1            50    1     1      -0.2621111352E-04      50    1    1        -0.2015463648E-05      0.1652691920E-04
          0                 5           1            50    1     1       0.1824044619E-05      50    1    1         0.1415617152E-06      0.1205095017E-05
          0                 6           1            50    1     1      -0.1094329737E-06      50    1    1        -0.8570071708E-08      0.7589653489E-07

    ------------------------------------------------
       NWT REQUIRED            6 OUTER ITERATIONS 
       AND A TOTAL OF          9 INNER ITERATIONS.
    ------------------------------------------------

 NO OUTPUT CONTROL FOR STRESS PERIOD   36   TIME STEP   13
 
 WELLS WITH REDUCED PUMPING FOR STRESS PERIOD    36 TIME STEP    13
   LAY   ROW   COL         APPL.Q          ACT.Q        GW-HEAD       CELL-BOT
     1     3    50  -0.500025E+00  -0.311715E+00   0.652993E+01   0.000000E+00
     1     5    55  -0.500025E+00  -0.242137E+00   0.543343E+01   0.000000E+00
 
 
 SOLVING FOR HEAD 
                                                   Max.-Head-Change                         Max.-Flux-Residual
  Residual-Control   Outer-Iter.   Inner-Iter.     Column Row Layer    Maximum-Head-Change  Column Row Layer    Maximum-Flux-Residual          L2-NORM 
          0                 1           2            50    1     1       0.3621375864E-01      50    1    1         0.2481774815E-02      0.2255211625E-01
          0                 2           2            50    1     1      -0.3583507865E-02      50    1    1        -0.2487192905E-03      0.2189830939E-02
          0                 3           2            50    1     1       0.3189925206E-03      50    1    1         0.2237922103E-04      0.1984538758E-03
          0                 4           1            50    1     1      -0.2529599977E-04      50    1    1        -0.1792620665E-05      0.1636501672E-04
          0                 5           1            50    1     1       0.1759637024E-05      50    1    1         0.1258606416E-06      0.1196280223E-05
          0                 6           1            50    1     1      -0.1055277335E-06      50    1    1        -0.7616285713E-08      0.7558283223E-07

    ------------------------------------------------
       NWT REQUIRED            6 OUTER ITERATIONS 
       AND A TOTAL OF          9 INNER ITERATIONS.
    ------------------------------------------------

 NO OUTPUT CONTROL FOR STRESS PERIOD   36   TIME STEP   14
 
 WELLS WITH REDUCED PUMPING FOR STRESS PERIOD    36 TIME STEP    14
   LAY   ROW   COL         APPL.Q          ACT.Q        GW-HEAD       CELL-BOT
     1     3    50  -0.500011E+00  -0.312802E+00   0.654676E+01   0.000000E+00
     1     5    55  -0.500011E+00  -0.242927E+00   0.544524E+01   0.000000E+00
 
 
 SOLVING FOR HEAD 
                                                   Max.-Head-Change                         Max.-Flux-Residual
  Residual-Control   Outer-Iter.   Inner-Iter.     Column Row Layer    Maximum-Head-Change  Column Row Layer    Maximum-Flux-Residual          L2-NORM 
          0                 1           2            50    1     1       0.3461874543E-01      50    1    1         0.2178968427E-02      0.2233091466E-01
          0                 2           2            50    1     1      -0.3424247502E-02      50    1    1        -0.2183989001E-03      0.2168525306E-02
          0                 3           2            50    1     1       0.3047139352E-03      50    1    1         0.1965078396E-04      0.1965794179E-03
          0                 4           1            50    1     1      -0.2415768217E-04      50    1    1        -0.1574069597E-05      0.1623471356E-04
          0                 5           1            50    1     1       0.1679499021E-05      50    1    1         0.1104550038E-06      0.1189502566E-05
          0                 6           1            50    1     1      -0.1006666626E-06      50    1    1        -0.6679962528E-08      0.7538277138E-07

    ------------------------------------------------
       NWT REQUIRED            6 OUTER ITERATIONS 
       AND A TOTAL OF          9 INNER ITERATIONS.
    ------------------------------------------------

 NO OUTPUT CONTROL FOR STRESS PERIOD   36   TIME STEP   15
 
 WELLS WITH REDUCED PUMPING FOR STRESS PERIOD    36 TIME STEP    15
   LAY   ROW   COL         APPL.Q          ACT.Q        GW-HEAD       CELL-BOT
     1     3    50  -0.500011E+00  -0.313813E+00   0.656231E+01   0.000000E+00
     1     5    55  -0.500011E+00  -0.243655E+00   0.545601E+01   0.000000E+00
 
 
 SOLVING FOR HEAD 
                                                   Max.-Head-Change                         Max.-Flux-Residual
  Residual-Control   Outer-Iter.   Inner-Iter.     Column Row Layer    Maximum-Head-Change  Column Row Layer    Maximum-Flux-Residual          L2-NORM 
          0                 1           2            50    1     1       0.3282596317E-01      50    1    1         0.1893707037E-02      0.2214658036E-01
          0                 2           2            50    1     1      -0.3245089879E-02      50    1    1        -0.1898101968E-03      0.2150555863E-02
          0                 3           2            50    1     1       0.2886555825E-03      50    1    1         0.1707842612E-04      0.1949923961E-03
          0                 4           1            50    1     1      -0.2287729158E-04      50    1    1        -0.1368018658E-05      0.1612570882E-04
          0                 5           1            50    1     1       0.1589250272E-05      50    1    1         0.9592140815E-07      0.1183961378E-05
          0                 6           1            50    1     1      -0.9518493905E-07      50    1    1        -0.5796012392E-08      0.7524350020E-07

    ------------------------------------------------
       NWT REQUIRED            6 OUTER ITERATIONS 
       AND A TOTAL OF          9 INNER ITERATIONS.
    ------------------------------------------------

 NO OUTPUT CONTROL FOR STRESS PERIOD   36   TIME STEP   16
 
 WELLS WITH REDUCED PUMPING FOR STRESS PERIOD    36 TIME STEP    16
   LAY   ROW   COL         APPL.Q          ACT.Q        GW-HEAD       CELL-BOT
     1     3    50  -0.500011E+00  -0.314756E+00   0.657683E+01   0.000000E+00
     1     5    55  -0.500011E+00  -0.244328E+00   0.546598E+01   0.000000E+00
 
 
 SOLVING FOR HEAD 
                                                   Max.-Head-Change                         Max.-Flux-Residual
  Residual-Control   Outer-Iter.   Inner-Iter.     Column Row Layer    Maximum-Head-Change  Column Row Layer    Maximum-Flux-Residual          L2-NORM 
          0                 1           2            50    1     1       0.3092315157E-01      50    1    1         0.1632484936E-02      0.2198771656E-01
          0                 2           2            50    1     1      -0.3054622273E-02      50    1    1        -0.1636170996E-03      0.2135140175E-02
          0                 3           2            50    1     1       0.2715749332E-03      50    1    1         0.1472175432E-04      0.1936443347E-03
          0                 4           1            50    1     1      -0.2151456964E-04      50    1    1        -0.1179243507E-05      0.1603516556E-04
          0                 5           1            50    1     1       0.1493003502E-05      50    1    1         0.8259538520E-07      0.1179432821E-05
          0                 6           1            50    1     1      -0.8932653550E-07       2    4    1        -0.5552092119E-08      0.7514646112E-07

    ------------------------------------------------
       NWT REQUIRED            6 OUTER ITERATIONS 
       AND A TOTAL OF          9 INNER ITERATIONS.
    ------------------------------------------------

 NO OUTPUT CONTROL FOR STRESS PERIOD   36   TIME STEP   17
 
 WELLS WITH REDUCED PUMPING FOR STRESS PERIOD    36 TIME STEP    17
   LAY   ROW   COL         APPL.Q          ACT.Q        GW-HEAD       CELL-BOT
     1     3    50  -0.500022E+00  -0.315647E+00   0.659046E+01   0.000000E+00
     1     5    55  -0.500022E+00  -0.244961E+00   0.547526E+01   0.000000E+00
 
 
 SOLVING FOR HEAD 
                                                   Max.-Head-Change                         Max.-Flux-Residual
  Residual-Control   Outer-Iter.   Inner-Iter.     Column Row Layer    Maximum-Head-Change  Column Row Layer    Maximum-Flux-Residual          L2-NORM 
          0                 1           2             1    1     1      -0.3027966841E-01      50    1    1         0.1398151805E-02      0.2184869954E-01
          0                 2           2            51    1     1      -0.2944398960E-02      50    1    1        -0.1401131914E-03      0.2121732872E-02
          0                 3           2            51    1     1       0.2613846294E-03      50    1    1         0.1260710928E-04      0.1924555874E-03
          0                 4           1            51    1     1      -0.2069436854E-04      50    1    1        -0.1009854662E-05      0.1595568241E-04
          0                 5           1            51    1     1       0.1437855534E-05      50    1    1         0.7062548579E-07      0.1175348150E-05
          0                 6           1            51    1     1      -0.8616424708E-07       2    4    1        -0.5649798851E-08      0.7505477826E-07

    ------------------------------------------------
       NWT REQUIRED            6 OUTER ITERATIONS 
       AND A TOTAL OF          9 INNER ITERATIONS.
    ------------------------------------------------

 NO OUTPUT CONTROL FOR STRESS PERIOD   36   TIME STEP   18
 
 WELLS WITH REDUCED PUMPING FOR STRESS PERIOD    36 TIME STEP    18
   LAY   ROW   COL         APPL.Q          ACT.Q        GW-HEAD       CELL-BOT
     1     3    50  -0.500017E+00  -0.316483E+00   0.660340E+01   0.000000E+00
     1     5    55  -0.500017E+00  -0.245550E+00   0.548401E+01   0.000000E+00
 
 
 SOLVING FOR HEAD 
                                                   Max.-Head-Change                         Max.-Flux-Residual
  Residual-Control   Outer-Iter.   Inner-Iter.     Column Row Layer    Maximum-Head-Change  Column Row Layer    Maximum-Flux-Residual          L2-NORM 
          0                 1           2             1    1     1      -0.3328251633E-01       1    7    1        -0.1249377624E-02      0.2172433873E-01
          0                 2           2             1    1     1       0.3144507066E-02       1    7    1         0.1249354692E-03      0.2109727412E-02
          0                 3           2             1    1     1      -0.2672835596E-03       1    1    1        -0.1124443200E-04      0.1914336607E-03
          0                 4           1            51    1     1      -0.2098370415E-04       1    1    1         0.9006758930E-06      0.1589191402E-04
          0                 5           1            51    1     1       0.1456521797E-05       2    4    1         0.7063457019E-07      0.1172091296E-05
          0                 6           1            51    1     1      -0.8720556095E-07       2    4    1        -0.5740570685E-08      0.7498705784E-07

    ------------------------------------------------
       NWT REQUIRED            6 OUTER ITERATIONS 
       AND A TOTAL OF          9 INNER ITERATIONS.
    ------------------------------------------------

 NO OUTPUT CONTROL FOR STRESS PERIOD   36   TIME STEP   19
 
 WELLS WITH REDUCED PUMPING FOR STRESS PERIOD    36 TIME STEP    19
   LAY   ROW   COL         APPL.Q          ACT.Q        GW-HEAD       CELL-BOT
     1     3    50  -0.499989E+00  -0.317257E+00   0.661561E+01   0.000000E+00
     1     5    55  -0.499989E+00  -0.246088E+00   0.549218E+01   0.000000E+00
 
 
 SOLVING FOR HEAD 
                                                   Max.-Head-Change                         Max.-Flux-Residual
  Residual-Control   Outer-Iter.   Inner-Iter.     Column Row Layer    Maximum-Head-Change  Column Row Layer    Maximum-Flux-Residual          L2-NORM 
          0                 1           2             1    1     1      -0.3658120981E-01       1    7    1        -0.1248625284E-02      0.2161334823E-01
          0                 2           2             1    1     1       0.3450330296E-02       1    7    1         0.1248599131E-03      0.2098672694E-02
          0                 3           2             1    1     1      -0.2926783060E-03       1    7    1        -0.1123766434E-04      0.1904719685E-03
          0                 4           1             1    1     1       0.2207247792E-04       1    1    1         0.9001333403E-06      0.1583017086E-04
          0                 5           1            51    1     1       0.1460646085E-05       2    4    1         0.7150404713E-07      0.1168355188E-05
          0                 6           1            51    1     1      -0.8734208232E-07       2    4    1        -0.5824052351E-08      0.7485022081E-07

    ------------------------------------------------
       NWT REQUIRED            6 OUTER ITERATIONS 
       AND A TOTAL OF          9 INNER ITERATIONS.
    ------------------------------------------------

 NO OUTPUT CONTROL FOR STRESS PERIOD   36   TIME STEP   20
 
 WELLS WITH REDUCED PUMPING FOR STRESS PERIOD    36 TIME STEP    20
   LAY   ROW   COL         APPL.Q          ACT.Q        GW-HEAD       CELL-BOT
     1     3    50  -0.499985E+00  -0.318004E+00   0.662719E+01   0.000000E+00
     1     5    55  -0.499985E+00  -0.246605E+00   0.549987E+01   0.000000E+00
 
 
 SOLVING FOR HEAD 
                                                   Max.-Head-Change                         Max.-Flux-Residual
  Residual-Control   Outer-Iter.   Inner-Iter.     Column Row Layer    Maximum-Head-Change  Column Row Layer    Maximum-Flux-Residual          L2-NORM 
          0                 1           2             1    1     1      -0.4020447356E-01       1    7    1        -0.1247798855E-02      0.2151454309E-01
          0                 2           2             1    1     1       0.3785954900E-02       1    1    1         0.1247769095E-03      0.2088716620E-02
          0                 3           2             1    1     1      -0.3205140550E-03       1    7    1        -0.1123023004E-04      0.1896006508E-03
          0                 4           1             1    1     1       0.2410996087E-04       1    7    1         0.8995373419E-06      0.1577473066E-04
          0                 5           1             1    1     1      -0.1576281863E-05       2    4    1         0.7230963917E-07      0.1164440624E-05
          0                 6           1             1    1     1       0.8868263948E-07       2    4    1        -0.5899792654E-08      0.7465783879E-07

    ------------------------------------------------
       NWT REQUIRED            6 OUTER ITERATIONS 
       AND A TOTAL OF          9 INNER ITERATIONS.
    ------------------------------------------------

 NO OUTPUT CONTROL FOR STRESS PERIOD   36   TIME STEP   21
 
 WELLS WITH REDUCED PUMPING FOR STRESS PERIOD    36 TIME STEP    21
   LAY   ROW   COL         APPL.Q          ACT.Q        GW-HEAD       CELL-BOT
     1     3    50  -0.500000E+00  -0.318722E+00   0.663813E+01   0.000000E+00
     1     5    55  -0.500000E+00  -0.247100E+00   0.550708E+01   0.000000E+00
 
 
 SOLVING FOR HEAD 
                                                   Max.-Head-Change                         Max.-Flux-Residual
  Residual-Control   Outer-Iter.   Inner-Iter.     Column Row Layer    Maximum-Head-Change  Column Row Layer    Maximum-Flux-Residual          L2-NORM 
          0                 1           2             1    1     1      -0.4418372817E-01       1    7    1        -0.1246891080E-02      0.2142523946E-01
          0                 2           2             1    1     1       0.4154276602E-02       1    1    1         0.1246857286E-03      0.2079838739E-02
          0                 3           2             1    1     1      -0.3510288637E-03       1    7    1        -0.1122206374E-04      0.1888168732E-03
          0                 4           1             1    1     1       0.2633836181E-04       1    7    1         0.8988826612E-06      0.1572402315E-04
          0                 5           1             1    1     1      -0.1710985707E-05       2    4    1         0.7305216343E-07      0.1160004455E-05
          0                 6           1             1    1     1       0.9554715961E-07       2    4    1        -0.5967375927E-08      0.7437646058E-07

    ------------------------------------------------
       NWT REQUIRED            6 OUTER ITERATIONS 
       AND A TOTAL OF          9 INNER ITERATIONS.
    ------------------------------------------------

 NO OUTPUT CONTROL FOR STRESS PERIOD   36   TIME STEP   22
 
 WELLS WITH REDUCED PUMPING FOR STRESS PERIOD    36 TIME STEP    22
   LAY   ROW   COL         APPL.Q          ACT.Q        GW-HEAD       CELL-BOT
     1     3    50  -0.499997E+00  -0.319397E+00   0.664862E+01   0.000000E+00
     1     5    55  -0.499997E+00  -0.247565E+00   0.551398E+01   0.000000E+00
 
 
 SOLVING FOR HEAD 
                                                   Max.-Head-Change                         Max.-Flux-Residual
  Residual-Control   Outer-Iter.   Inner-Iter.     Column Row Layer    Maximum-Head-Change  Column Row Layer    Maximum-Flux-Residual          L2-NORM 
          0                 1           2             1    1     1      -0.4857801661E-01       1    7    1        -0.1245894020E-02      0.2134489126E-01
          0                 2           2             1    1     1       0.4562052183E-02       1    1    1         0.1245859439E-03      0.2071769026E-02
          0                 3           2             1    1     1      -0.3848838615E-03       1    7    1        -0.1121312271E-04      0.1880556066E-03
          0                 4           1             1    1     1       0.2881220259E-04       1    1    1         0.8981658972E-06      0.1566916330E-04
          0                 5           1             3    1     1      -0.1859126942E-05       2    4    1         0.7321833095E-07      0.1154009887E-05
          0                 6           1             1    1     1       0.1028653147E-06       2    4    1        -0.5995541841E-08      0.7392054125E-07

    ------------------------------------------------
       NWT REQUIRED            6 OUTER ITERATIONS 
       AND A TOTAL OF          9 INNER ITERATIONS.
    ------------------------------------------------

 NO OUTPUT CONTROL FOR STRESS PERIOD   36   TIME STEP   23
 
 WELLS WITH REDUCED PUMPING FOR STRESS PERIOD    36 TIME STEP    23
   LAY   ROW   COL         APPL.Q          ACT.Q        GW-HEAD       CELL-BOT
     1     3    50  -0.500009E+00  -0.320042E+00   0.665848E+01   0.000000E+00
     1     5    55  -0.500009E+00  -0.248010E+00   0.552048E+01   0.000000E+00
 
 
 SOLVING FOR HEAD 
                                                   Max.-Head-Change                         Max.-Flux-Residual
  Residual-Control   Outer-Iter.   Inner-Iter.     Column Row Layer    Maximum-Head-Change  Column Row Layer    Maximum-Flux-Residual          L2-NORM 
          0                 1           2             1    1     1      -0.5347044384E-01       1    5    1        -0.1245652379E-02      0.2127220965E-01
          0                 2           2             1    1     1       0.5017267381E-02       1    3    1         0.1245607823E-03      0.2064697083E-02
          0                 3           2             2    1     1      -0.4227707702E-03       1    5    1        -0.1121105133E-04      0.1873444292E-03
          0                 4           1             3    1     1       0.3158385998E-04       1    3    1         0.8979980564E-06      0.1561341515E-04
          0                 5           1             3    1     1      -0.2021322931E-05       7    4    1         0.7305633432E-07      0.1146626679E-05
          0                 6           1             3    1     1       0.1106536383E-06       7    4    1        -0.6005048903E-08      0.7330048794E-07

    ------------------------------------------------
       NWT REQUIRED            6 OUTER ITERATIONS 
       AND A TOTAL OF          9 INNER ITERATIONS.
    ------------------------------------------------

 NO OUTPUT CONTROL FOR STRESS PERIOD   36   TIME STEP   24
 
 WELLS WITH REDUCED PUMPING FOR STRESS PERIOD    36 TIME STEP    24
   LAY   ROW   COL         APPL.Q          ACT.Q        GW-HEAD       CELL-BOT
     1     3    50  -0.499998E+00  -0.320622E+00   0.666758E+01   0.000000E+00
     1     5    55  -0.499998E+00  -0.248405E+00   0.552642E+01   0.000000E+00
 
 
 SOLVING FOR HEAD 
                                                   Max.-Head-Change                         Max.-Flux-Residual
  Residual-Control   Outer-Iter.   Inner-Iter.     Column Row Layer    Maximum-Head-Change  Column Row Layer    Maximum-Flux-Residual          L2-NORM 
          0                 1           3             1    1     1      -0.5887245584E-01       1    5    1        -0.1247222522E-02      0.2120742631E-01
          0                 2           2             1    1     1       0.5519981448E-02       1    5    1         0.1247173815E-03      0.2058068320E-02
          0                 3           2             2    1     1      -0.4646384128E-03       1    5    1        -0.1122519915E-04      0.1866779945E-03
          0                 4           1             3    1     1       0.3464663909E-04       1    3    1         0.8991305123E-06      0.1556023022E-04
          0                 5           1             3    1     1      -0.2196661441E-05      30    4    1         0.7287729353E-07      0.1138106575E-05
          0                 6           1             1    1     1       0.1188441143E-06       9    4    1        -0.5995154595E-08      0.7253104135E-07

    ------------------------------------------------
       NWT REQUIRED            6 OUTER ITERATIONS 
       AND A TOTAL OF         10 INNER ITERATIONS.
    ------------------------------------------------

 NO OUTPUT CONTROL FOR STRESS PERIOD   36   TIME STEP   25
 
 WELLS WITH REDUCED PUMPING FOR STRESS PERIOD    36 TIME STEP    25
   LAY   ROW   COL         APPL.Q          ACT.Q        GW-HEAD       CELL-BOT
     1     3    50  -0.500005E+00  -0.321171E+00   0.667602E+01   0.000000E+00
     1     5    55  -0.500005E+00  -0.248780E+00   0.553190E+01   0.000000E+00
 
 
 SOLVING FOR HEAD 
                                                   Max.-Head-Change                         Max.-Flux-Residual
  Residual-Control   Outer-Iter.   Inner-Iter.     Column Row Layer    Maximum-Head-Change  Column Row Layer    Maximum-Flux-Residual          L2-NORM 
          0                 1           3             1    1     1      -0.6481917397E-01       1    5    1        -0.1248625941E-02      0.2114994949E-01
          0                 2           2             1    1     1       0.6072713961E-02       1    5    1         0.1248572426E-03      0.2052187227E-02
          0                 3           2             1    1     1      -0.5105368918E-03       1    5    1        -0.1123784621E-04      0.1860976179E-03
          0                 4           1             1    1     1       0.3798088202E-04       1    5    1         0.9001426733E-06      0.1551537683E-04
          0                 5           1             3    1     1      -0.2376671044E-05      30    4    1         0.7358333143E-07      0.1129155948E-05
          0                 6           1             1    1     1       0.1267537736E-06       9    4    1        -0.6031942945E-08      0.7168278121E-07

    ------------------------------------------------
       NWT REQUIRED            6 OUTER ITERATIONS 
       AND A TOTAL OF         10 INNER ITERATIONS.
    ------------------------------------------------

 NO OUTPUT CONTROL FOR STRESS PERIOD   36   TIME STEP   26
 
 WELLS WITH REDUCED PUMPING FOR STRESS PERIOD    36 TIME STEP    26
   LAY   ROW   COL         APPL.Q          ACT.Q        GW-HEAD       CELL-BOT
     1     3    50  -0.500003E+00  -0.321671E+00   0.668380E+01   0.000000E+00
     1     5    55  -0.500003E+00  -0.249125E+00   0.553702E+01   0.000000E+00
 
 
 SOLVING FOR HEAD 
                                                   Max.-Head-Change                         Max.-Flux-Residual
  Residual-Control   Outer-Iter.   Inner-Iter.     Column Row Layer    Maximum-Head-Change  Column Row Layer    Maximum-Flux-Residual          L2-NORM 
          0                 1           3             1    1     1      -0.7136345752E-01       1    5    1        -0.1249831374E-02      0.2109940046E-01
          0                 2           2             1    1     1       0.6683114339E-02       1    5    1         0.1249772960E-03      0.2046925204E-02
          0                 3           2             1    1     1      -0.5614631609E-03       1    5    1        -0.1124871229E-04      0.1855466287E-03
          0                 4           1             1    1     1       0.4169183108E-04       1    5    1         0.9010121431E-06      0.1546881971E-04
          0                 5           1             3    1     1      -0.2569456588E-05       9    4    1         0.7465371255E-07      0.1117928560E-05
          0                 6           1             1    1     1       0.1346142505E-06       9    4    1        -0.6140279396E-08      0.7059603338E-07

    ------------------------------------------------
       NWT REQUIRED            6 OUTER ITERATIONS 
       AND A TOTAL OF         10 INNER ITERATIONS.
    ------------------------------------------------

 NO OUTPUT CONTROL FOR STRESS PERIOD   36   TIME STEP   27
 
 WELLS WITH REDUCED PUMPING FOR STRESS PERIOD    36 TIME STEP    27
   LAY   ROW   COL         APPL.Q          ACT.Q        GW-HEAD       CELL-BOT
     1     3    50  -0.500001E+00  -0.322118E+00   0.669074E+01   0.000000E+00
     1     5    55  -0.500001E+00  -0.249426E+00   0.554150E+01   0.000000E+00
 
 
 SOLVING FOR HEAD 
                                                   Max.-Head-Change                         Max.-Flux-Residual
  Residual-Control   Outer-Iter.   Inner-Iter.     Column Row Layer    Maximum-Head-Change  Column Row Layer    Maximum-Flux-Residual          L2-NORM 
          0                 1           3             1    1     1      -0.7853600845E-01       1    5    1        -0.1250836346E-02      0.2104701672E-01
          0                 2           2             1    1     1       0.7354244063E-02       1    5    1         0.1250768759E-03      0.2042310291E-02
          0                 3           2             1    1     1      -0.6175996558E-03       1    5    1        -0.1125774119E-04      0.1850538589E-03
          0                 4           1             1    1     1       0.4578050861E-04       1    5    1         0.9017343885E-06      0.1542249915E-04
          0                 5           1             3    1     1      -0.2770479540E-05       9    4    1         0.7527054180E-07      0.1104383513E-05
          0                 6           1             1    1     1       0.1419323159E-06       9    4    1        -0.6183324075E-08      0.6928344999E-07

    ------------------------------------------------
       NWT REQUIRED            6 OUTER ITERATIONS 
       AND A TOTAL OF         10 INNER ITERATIONS.
    ------------------------------------------------

 NO OUTPUT CONTROL FOR STRESS PERIOD   36   TIME STEP   28
 
 WELLS WITH REDUCED PUMPING FOR STRESS PERIOD    36 TIME STEP    28
   LAY   ROW   COL         APPL.Q          ACT.Q        GW-HEAD       CELL-BOT
     1     3    50  -0.499991E+00  -0.322505E+00   0.669685E+01   0.000000E+00
     1     5    55  -0.499991E+00  -0.249688E+00   0.554546E+01   0.000000E+00
 
 
 SOLVING FOR HEAD 
                                                   Max.-Head-Change                         Max.-Flux-Residual
  Residual-Control   Outer-Iter.   Inner-Iter.     Column Row Layer    Maximum-Head-Change  Column Row Layer    Maximum-Flux-Residual          L2-NORM 
          0                 1           3             1    1     1      -0.8640273408E-01       1    5    1        -0.1251202676E-02      0.2099589483E-01
          0                 2           2             1    1     1       0.8084685328E-02       1    5    1         0.1251128871E-03      0.2037103940E-02
          0                 3           2             1    1     1      -0.6781808667E-03       1    5    1        -0.1126106102E-04      0.1844788081E-03
          0                 4           1             3    1     1       0.5015421280E-04       4    3    1         0.9025856897E-06      0.1536821815E-04
          0                 5           1             3    1     1      -0.2964925820E-05       9    4    1         0.7603265573E-07      0.1088311450E-05
          0                 6           1             1    1     1       0.1475130580E-06       9    4    1        -0.6229463168E-08      0.6779289681E-07

    ------------------------------------------------
       NWT REQUIRED            6 OUTER ITERATIONS 
       AND A TOTAL OF         10 INNER ITERATIONS.
    ------------------------------------------------

 NO OUTPUT CONTROL FOR STRESS PERIOD   36   TIME STEP   29
 
 WELLS WITH REDUCED PUMPING FOR STRESS PERIOD    36 TIME STEP    29
   LAY   ROW   COL         APPL.Q          ACT.Q        GW-HEAD       CELL-BOT
     1     3    50  -0.500005E+00  -0.322846E+00   0.670200E+01   0.000000E+00
     1     5    55  -0.500005E+00  -0.249920E+00   0.554878E+01   0.000000E+00
 
 
 SOLVING FOR HEAD 
                                                   Max.-Head-Change                         Max.-Flux-Residual
  Residual-Control   Outer-Iter.   Inner-Iter.     Column Row Layer    Maximum-Head-Change  Column Row Layer    Maximum-Flux-Residual          L2-NORM 
          0                 1           3             1    1     1      -0.9511962812E-01       1    5    1        -0.1251443354E-02      0.2095157616E-01
          0                 2           2             1    1     1       0.8900583038E-02       1    5    1         0.1251375863E-03      0.2032436004E-02
          0                 3           2             1    1     1      -0.7463892009E-03       1    5    1        -0.1126335018E-04      0.1839301326E-03
          0                 4           1             1    1     1       0.5506159786E-04       4    3    1         0.9034428032E-06      0.1531349203E-04
          0                 5           1             3    1     1      -0.3162335476E-05       9    4    1         0.7824784731E-07      0.1070038131E-05
          0                 6           1             1    1     1       0.1521908464E-06       9    4    1        -0.6362856908E-08      0.6618295480E-07

    ------------------------------------------------
       NWT REQUIRED            6 OUTER ITERATIONS 
       AND A TOTAL OF         10 INNER ITERATIONS.
    ------------------------------------------------

 NO OUTPUT CONTROL FOR STRESS PERIOD   36   TIME STEP   30
 
 WELLS WITH REDUCED PUMPING FOR STRESS PERIOD    36 TIME STEP    30
   LAY   ROW   COL         APPL.Q          ACT.Q        GW-HEAD       CELL-BOT
     1     3    50  -0.500015E+00  -0.323128E+00   0.670629E+01   0.000000E+00
     1     5    55  -0.500015E+00  -0.250119E+00   0.555165E+01   0.000000E+00
 



 STREAM LISTING     PERIOD     36   STEP       30

 LAYER ROW COL. STREAM  RCH.   FLOW INTO    STREAM     FLOW OUT OF   OVRLND.    DIRECT     STREAM      STREAM      STREAM     STREAM  STREAMBED   FLOW TO   CHNG. UNSAT. 
                SEG.NO.  NO.   STRM. RCH.    LOSS       STRM. RCH.   RUNOFF     PRECIP       ET         HEAD        DEPTH      WIDTH  CONDCTNC.   WAT. TAB.

   1    4    1     1     1    1.6000E-02  1.0284E-04   1.5897E-02  0.000E+00  0.000E+00  0.000E+00  1.39994E+02  1.444E-01  1.045E+00  1.596E-04  2.274E-04 -1.245E-04
   1    4    2     1     2    1.5897E-02  1.0253E-04   1.5795E-02  0.000E+00  0.000E+00  0.000E+00  1.39694E+02  1.441E-01  1.043E+00  1.592E-04  2.247E-04 -1.222E-04
   1    4    3     1     3    1.5795E-02  1.0223E-04   1.5692E-02  0.000E+00  0.000E+00  0.000E+00  1.39394E+02  1.437E-01  1.040E+00  1.588E-04  2.225E-04 -1.203E-04
   1    4    4     1     4    1.5692E-02  1.0192E-04   1.5590E-02  0.000E+00  0.000E+00  0.000E+00  1.39093E+02  1.434E-01  1.038E+00  1.584E-04  2.213E-04 -1.194E-04
   1    4    5     1     5    1.5590E-02  1.0162E-04   1.5489E-02  0.000E+00  0.000E+00  0.000E+00  1.38793E+02  1.430E-01  1.035E+00  1.580E-04  2.211E-04 -1.195E-04
   1    4    6     1     6    1.5489E-02  1.0131E-04   1.5388E-02  0.000E+00  0.000E+00  0.000E+00  1.38493E+02  1.427E-01  1.033E+00  1.576E-04  2.209E-04 -1.196E-04
   1    4    7     1     7    1.5388E-02  1.0101E-04   1.5287E-02  0.000E+00  0.000E+00  0.000E+00  1.38192E+02  1.423E-01  1.030E+00  1.573E-04  2.206E-04 -1.196E-04
   1    4    8     1     8    1.5287E-02  1.0070E-04   1.5186E-02  0.000E+00  0.000E+00  0.000E+00  1.37892E+02  1.420E-01  1.028E+00  1.569E-04  2.204E-04 -1.197E-04
   1    4    9     1     9    1.5186E-02  1.0040E-04   1.5085E-02  0.000E+00  0.000E+00  0.000E+00  1.37592E+02  1.416E-01  1.025E+00  1.565E-04  2.202E-04 -1.198E-04
   1    4   10     1    10    1.5085E-02  1.0010E-04   1.4985E-02  0.000E+00  0.000E+00  0.000E+00  1.37291E+02  1.413E-01  1.022E+00  1.561E-04  2.200E-04 -1.200E-04
   1    4   11     1    11    1.4985E-02  9.9790E-05   1.4886E-02  0.000E+00  0.000E+00  0.000E+00  1.36991E+02  1.409E-01  1.020E+00  1.557E-04  2.207E-04 -1.210E-04
   1    4   12     1    12    1.4886E-02  9.9485E-05   1.4786E-02  0.000E+00  0.000E+00  0.000E+00  1.36691E+02  1.406E-01  1.017E+00  1.553E-04  2.226E-04 -1.231E-04
   1    4   13     1    13    1.4786E-02  9.9180E-05   1.4687E-02  0.000E+00  0.000E+00  0.000E+00  1.36390E+02  1.402E-01  1.015E+00  1.549E-04  2.249E-04 -1.258E-04
   1    4   14     1    14    1.4687E-02  9.8875E-05   1.4588E-02  0.000E+00  0.000E+00  0.000E+00  1.36090E+02  1.398E-01  1.012E+00  1.545E-04  2.277E-04 -1.289E-04
   1    4   15     1    15    1.4588E-02  9.8570E-05   1.4489E-02  0.000E+00  0.000E+00  0.000E+00  1.35789E+02  1.395E-01  1.010E+00  1.541E-04  2.311E-04 -1.325E-04
   1    4   16     1    16    1.4489E-02  9.8264E-05   1.4391E-02  0.000E+00  0.000E+00  0.000E+00  1.35489E+02  1.391E-01  1.007E+00  1.537E-04  2.349E-04 -1.367E-04
   1    4   17     1    17    1.4391E-02  9.7959E-05   1.4293E-02  0.000E+00  0.000E+00  0.000E+00  1.35189E+02  1.388E-01  1.004E+00  1.534E-04  2.392E-04 -1.413E-04
   1    4   18     1    18    1.4293E-02  9.7653E-05   1.4196E-02  0.000E+00  0.000E+00  0.000E+00  1.34888E+02  1.384E-01  1.002E+00  1.530E-04  2.441E-04 -1.465E-04
   1    4   19     1    19    1.4196E-02  9.7348E-05   1.4098E-02  0.000E+00  0.000E+00  0.000E+00  1.34588E+02  1.381E-01  9.993E-01  1.526E-04  2.450E-04 -1.477E-04
   1    4   20     1    20    1.4098E-02  9.7042E-05   1.4001E-02  0.000E+00  0.000E+00  0.000E+00  1.34288E+02  1.377E-01  9.968E-01  1.522E-04  2.451E-04 -1.480E-04
   1    4   21     1    21    1.4001E-02  9.6737E-05   1.3904E-02  0.000E+00  0.000E+00  0.000E+00  1.33987E+02  1.374E-01  9.942E-01  1.518E-04  2.480E-04 -1.513E-04
   1    4   22     1    22    1.3904E-02  9.6431E-05   1.3808E-02  0.000E+00  0.000E+00  0.000E+00  1.33687E+02  1.370E-01  9.916E-01  1.514E-04  2.542E-04 -1.578E-04
   1    4   23     1    23    1.3808E-02  9.6125E-05   1.3712E-02  0.000E+00  0.000E+00  0.000E+00  1.33387E+02  1.366E-01  9.890E-01  1.510E-04  2.610E-04 -1.649E-04
   1    4   24     1    24    1.3712E-02  9.5819E-05   1.3616E-02  0.000E+00  0.000E+00  0.000E+00  1.33086E+02  1.363E-01  9.864E-01  1.506E-04  2.683E-04 -1.724E-04
   1    4   25     1    25    1.3616E-02  9.5513E-05   1.3521E-02  0.000E+00  0.000E+00  0.000E+00  1.32786E+02  1.359E-01  9.838E-01  1.502E-04  2.701E-04 -1.746E-04
   1    4   26     1    26    1.3521E-02  9.5207E-05   1.3425E-02  0.000E+00  0.000E+00  0.000E+00  1.32486E+02  1.356E-01  9.812E-01  1.498E-04  2.765E-04 -1.813E-04
   1    4   27     1    27    1.3425E-02  9.4901E-05   1.3330E-02  0.000E+00  0.000E+00  0.000E+00  1.32185E+02  1.352E-01  9.786E-01  1.494E-04  2.843E-04 -1.894E-04
   1    4   28     1    28    1.3330E-02  9.4595E-05   1.3236E-02  0.000E+00  0.000E+00  0.000E+00  1.31885E+02  1.348E-01  9.760E-01  1.490E-04  2.926E-04 -1.980E-04
   1    4   29     1    29    1.3236E-02  9.4288E-05   1.3142E-02  0.000E+00  0.000E+00  0.000E+00  1.31584E+02  1.345E-01  9.734E-01  1.486E-04  2.990E-04 -2.047E-04
   1    4   30     1    30    1.3142E-02  9.3982E-05   1.3048E-02  0.000E+00  0.000E+00  0.000E+00  1.31284E+02  1.341E-01  9.708E-01  1.482E-04  3.072E-04 -2.132E-04
   1    4   31     1    31    1.3048E-02  9.3676E-05   1.2954E-02  0.000E+00  0.000E+00  0.000E+00  1.30984E+02  1.338E-01  9.682E-01  1.478E-04  3.179E-04 -2.243E-04
   1    4   32     1    32    1.2954E-02  9.3369E-05   1.2861E-02  0.000E+00  0.000E+00  0.000E+00  1.30683E+02  1.334E-01  9.656E-01  1.474E-04  3.255E-04 -2.321E-04
   1    4   33     1    33    1.2861E-02  9.3062E-05   1.2767E-02  0.000E+00  0.000E+00  0.000E+00  1.30383E+02  1.330E-01  9.629E-01  1.470E-04  3.376E-04 -2.446E-04
   1    4   34     1    34    1.2767E-02  9.2756E-05   1.2675E-02  0.000E+00  0.000E+00  0.000E+00  1.30083E+02  1.327E-01  9.603E-01  1.466E-04  3.478E-04 -2.550E-04
   1    4   35     1    35    1.2675E-02  9.2449E-05   1.2582E-02  0.000E+00  0.000E+00  0.000E+00  1.29782E+02  1.323E-01  9.577E-01  1.462E-04  3.547E-04 -2.623E-04
   1    4   36     1    36    1.2582E-02  9.2142E-05   1.2490E-02  0.000E+00  0.000E+00  0.000E+00  1.29482E+02  1.319E-01  9.551E-01  1.458E-04  3.621E-04 -2.700E-04
   1    4   37     1    37    1.2490E-02  9.1835E-05   1.2398E-02  0.000E+00  0.000E+00  0.000E+00  1.29182E+02  1.316E-01  9.524E-01  1.454E-04  3.809E-04 -2.891E-04
   1    4   38     1    38    1.2398E-02  9.1528E-05   1.2307E-02  0.000E+00  0.000E+00  0.000E+00  1.28881E+02  1.312E-01  9.498E-01  1.450E-04  3.823E-04 -2.908E-04
   1    4   39     1    39    1.2307E-02  9.1220E-05   1.2216E-02  0.000E+00  0.000E+00  0.000E+00  1.28581E+02  1.309E-01  9.471E-01  1.446E-04  3.840E-04 -2.928E-04
   1    4   40     1    40    1.2216E-02  9.0913E-05   1.2125E-02  0.000E+00  0.000E+00  0.000E+00  1.28280E+02  1.305E-01  9.445E-01  1.442E-04  3.859E-04 -2.950E-04
   1    4   41     1    41    1.2125E-02  9.0606E-05   1.2034E-02  0.000E+00  0.000E+00  0.000E+00  1.27980E+02  1.301E-01  9.419E-01  1.438E-04  3.710E-04 -2.804E-04
   1    4   42     1    42    1.2034E-02  9.0298E-05   1.1944E-02  0.000E+00  0.000E+00  0.000E+00  1.27680E+02  1.298E-01  9.392E-01  1.434E-04  3.726E-04 -2.824E-04
   1    4   43     1    43    1.1944E-02  8.9990E-05   1.1854E-02  0.000E+00  0.000E+00  0.000E+00  1.27379E+02  1.294E-01  9.365E-01  1.430E-04  3.757E-04 -2.857E-04
   1    4   44     1    44    1.1854E-02  8.9683E-05   1.1764E-02  0.000E+00  0.000E+00  0.000E+00  1.27079E+02  1.290E-01  9.339E-01  1.426E-04  3.793E-04 -2.896E-04
   1    4   45     1    45    1.1764E-02  8.9375E-05   1.1675E-02  0.000E+00  0.000E+00  0.000E+00  1.26779E+02  1.287E-01  9.312E-01  1.422E-04  3.834E-04 -2.941E-04
   1    4   46     1    46    1.1675E-02  8.9067E-05   1.1586E-02  0.000E+00  0.000E+00  0.000E+00  1.26478E+02  1.283E-01  9.286E-01  1.418E-04  3.882E-04 -2.992E-04
   1    4   47     1    47    1.1586E-02  8.8759E-05   1.1497E-02  0.000E+00  0.000E+00  0.000E+00  1.26178E+02  1.279E-01  9.259E-01  1.414E-04  4.245E-04 -3.358E-04
   1    4   48     1    48    1.1497E-02  8.8451E-05   1.1408E-02  0.000E+00  0.000E+00  0.000E+00  1.25878E+02  1.276E-01  9.232E-01  1.409E-04  4.302E-04 -3.418E-04
   1    4   49     1    49    1.1408E-02  8.8142E-05   1.1320E-02  0.000E+00  0.000E+00  0.000E+00  1.25577E+02  1.272E-01  9.205E-01  1.405E-04  4.478E-04 -3.597E-04
   1    4   50     1    50    1.1320E-02  8.7834E-05   1.1232E-02  0.000E+00  0.000E+00  0.000E+00  1.25277E+02  1.268E-01  9.179E-01  1.401E-04  5.167E-04 -4.289E-04
   1    4   51     1    51    1.1232E-02  8.7525E-05   1.1145E-02  0.000E+00  0.000E+00  0.000E+00  1.24976E+02  1.264E-01  9.152E-01  1.397E-04  5.288E-04 -4.414E-04
   1    4   52     1    52    1.1145E-02  8.7217E-05   1.1058E-02  0.000E+00  0.000E+00  0.000E+00  1.24676E+02  1.261E-01  9.125E-01  1.393E-04  5.346E-04 -4.474E-04
   1    4   53     1    53    1.1058E-02  8.6908E-05   1.0971E-02  0.000E+00  0.000E+00  0.000E+00  1.24376E+02  1.257E-01  9.098E-01  1.389E-04  5.337E-04 -4.468E-04
   1    4   54     1    54    1.0971E-02  8.6599E-05   1.0884E-02  0.000E+00  0.000E+00  0.000E+00  1.24075E+02  1.253E-01  9.071E-01  1.385E-04  5.266E-04 -4.401E-04
   1    4   55     1    55    1.0884E-02  8.6290E-05   1.0798E-02  0.000E+00  0.000E+00  0.000E+00  1.23775E+02  1.250E-01  9.044E-01  1.381E-04  5.138E-04 -4.276E-04
   1    4   56     1    56    1.0798E-02  8.5981E-05   1.0712E-02  0.000E+00  0.000E+00  0.000E+00  1.23475E+02  1.246E-01  9.017E-01  1.377E-04  4.654E-04 -3.795E-04
   1    4   57     1    57    1.0712E-02  8.5672E-05   1.0626E-02  0.000E+00  0.000E+00  0.000E+00  1.23174E+02  1.242E-01  8.990E-01  1.372E-04  4.260E-04 -3.404E-04
   1    4   58     1    58    1.0626E-02  8.5362E-05   1.0541E-02  0.000E+00  0.000E+00  0.000E+00  1.22874E+02  1.238E-01  8.963E-01  1.368E-04  4.201E-04 -3.348E-04
   1    4   59     1    59    1.0541E-02  8.5053E-05   1.0456E-02  0.000E+00  0.000E+00  0.000E+00  1.22573E+02  1.235E-01  8.936E-01  1.364E-04  4.147E-04 -3.297E-04
   1    4   60     1    60    1.0456E-02  8.4743E-05   1.0371E-02  0.000E+00  0.000E+00  0.000E+00  1.22273E+02  1.231E-01  8.909E-01  1.360E-04  3.807E-04 -2.960E-04
   1    4   61     1    61    1.0371E-02  8.4433E-05   1.0287E-02  0.000E+00  0.000E+00  0.000E+00  1.21973E+02  1.227E-01  8.881E-01  1.356E-04  3.770E-04 -2.926E-04
   1    4   62     1    62    1.0287E-02  8.4124E-05   1.0203E-02  0.000E+00  0.000E+00  0.000E+00  1.21672E+02  1.223E-01  8.854E-01  1.352E-04  3.739E-04 -2.898E-04
   1    4   63     1    63    1.0203E-02  8.3814E-05   1.0119E-02  0.000E+00  0.000E+00  0.000E+00  1.21372E+02  1.220E-01  8.827E-01  1.348E-04  3.714E-04 -2.876E-04
   1    4   64     1    64    1.0119E-02  8.3503E-05   1.0035E-02  0.000E+00  0.000E+00  0.000E+00  1.21072E+02  1.216E-01  8.800E-01  1.343E-04  3.693E-04 -2.859E-04
   1    4   65     1    65    1.0035E-02  8.3193E-05   9.9520E-03  0.000E+00  0.000E+00  0.000E+00  1.20771E+02  1.212E-01  8.772E-01  1.339E-04  3.486E-04 -2.655E-04
   1    4   66     1    66    9.9520E-03  8.2883E-05   9.8691E-03  0.000E+00  0.000E+00  0.000E+00  1.20471E+02  1.208E-01  8.745E-01  1.335E-04  3.833E-04 -3.005E-04
   1    4   67     1    67    9.8691E-03  8.2572E-05   9.7865E-03  0.000E+00  0.000E+00  0.000E+00  1.20170E+02  1.204E-01  8.717E-01  1.331E-04  3.821E-04 -2.996E-04
   1    4   68     1    68    9.7865E-03  8.2261E-05   9.7043E-03  0.000E+00  0.000E+00  0.000E+00  1.19870E+02  1.201E-01  8.690E-01  1.327E-04  3.812E-04 -2.990E-04
   1    4   69     1    69    9.7043E-03  8.1950E-05   9.6223E-03  0.000E+00  0.000E+00  0.000E+00  1.19570E+02  1.197E-01  8.662E-01  1.322E-04  3.805E-04 -2.986E-04
   1    4   70     1    70    9.6223E-03  8.1639E-05   9.5407E-03  0.000E+00  0.000E+00  0.000E+00  1.19269E+02  1.193E-01  8.635E-01  1.318E-04  3.777E-04 -2.961E-04
   1    4   71     1    71    9.5407E-03  8.1328E-05   9.4594E-03  0.000E+00  0.000E+00  0.000E+00  1.18969E+02  1.189E-01  8.607E-01  1.314E-04  3.520E-04 -2.707E-04
   1    4   72     1    72    9.4594E-03  8.1017E-05   9.3784E-03  0.000E+00  0.000E+00  0.000E+00  1.18669E+02  1.185E-01  8.580E-01  1.310E-04  3.405E-04 -2.595E-04
   1    4   73     1    73    9.3784E-03  8.0705E-05   9.2976E-03  0.000E+00  0.000E+00  0.000E+00  1.18368E+02  1.182E-01  8.552E-01  1.306E-04  3.277E-04 -2.470E-04
   1    4   74     1    74    9.2976E-03  8.0394E-05   9.2173E-03  0.000E+00  0.000E+00  0.000E+00  1.18068E+02  1.178E-01  8.524E-01  1.301E-04  3.189E-04 -2.386E-04
   1    4   75     1    75    9.2173E-03  8.0082E-05   9.1372E-03  0.000E+00  0.000E+00  0.000E+00  1.17767E+02  1.174E-01  8.496E-01  1.297E-04  3.071E-04 -2.271E-04
   1    4   76     1    76    9.1372E-03  7.9770E-05   9.0574E-03  0.000E+00  0.000E+00  0.000E+00  1.17467E+02  1.170E-01  8.469E-01  1.293E-04  2.972E-04 -2.175E-04
   1    4   77     1    77    9.0574E-03  7.9458E-05   8.9779E-03  0.000E+00  0.000E+00  0.000E+00  1.17167E+02  1.166E-01  8.441E-01  1.289E-04  2.896E-04 -2.102E-04
   1    4   78     1    78    8.9779E-03  7.9146E-05   8.8988E-03  0.000E+00  0.000E+00  0.000E+00  1.16866E+02  1.162E-01  8.413E-01  1.284E-04  2.788E-04 -1.997E-04
   1    4   79     1    79    8.8988E-03  7.8833E-05   8.8200E-03  0.000E+00  0.000E+00  0.000E+00  1.16566E+02  1.158E-01  8.385E-01  1.280E-04  2.736E-04 -1.948E-04
   1    4   80     1    80    8.8200E-03  7.8520E-05   8.7414E-03  0.000E+00  0.000E+00  0.000E+00  1.16265E+02  1.155E-01  8.357E-01  1.276E-04  2.669E-04 -1.884E-04
   1    4   81     1    81    8.7414E-03  7.8208E-05   8.6632E-03  0.000E+00  0.000E+00  0.000E+00  1.15965E+02  1.151E-01  8.329E-01  1.272E-04  2.559E-04 -1.777E-04
   1    4   82     1    82    8.6632E-03  7.7895E-05   8.5853E-03  0.000E+00  0.000E+00  0.000E+00  1.15665E+02  1.147E-01  8.301E-01  1.267E-04  2.492E-04 -1.713E-04
   1    4   83     1    83    8.5853E-03  7.7582E-05   8.5078E-03  0.000E+00  0.000E+00  0.000E+00  1.15364E+02  1.143E-01  8.273E-01  1.263E-04  2.500E-04 -1.724E-04
   1    4   84     1    84    8.5078E-03  7.7268E-05   8.4305E-03  0.000E+00  0.000E+00  0.000E+00  1.15064E+02  1.139E-01  8.244E-01  1.259E-04  2.415E-04 -1.643E-04
   1    4   85     1    85    8.4305E-03  7.6955E-05   8.3535E-03  0.000E+00  0.000E+00  0.000E+00  1.14764E+02  1.135E-01  8.216E-01  1.254E-04  2.310E-04 -1.540E-04
   1    4   86     1    86    8.3535E-03  7.6641E-05   8.2769E-03  0.000E+00  0.000E+00  0.000E+00  1.14463E+02  1.131E-01  8.188E-01  1.250E-04  2.250E-04 -1.484E-04
   1    4   87     1    87    8.2769E-03  7.6327E-05   8.2006E-03  0.000E+00  0.000E+00  0.000E+00  1.14163E+02  1.127E-01  8.160E-01  1.246E-04  2.260E-04 -1.497E-04
   1    4   88     1    88    8.2006E-03  7.6013E-05   8.1246E-03  0.000E+00  0.000E+00  0.000E+00  1.13862E+02  1.123E-01  8.131E-01  1.241E-04  2.272E-04 -1.512E-04
   1    4   89     1    89    8.1246E-03  7.5699E-05   8.0489E-03  0.000E+00  0.000E+00  0.000E+00  1.13562E+02  1.119E-01  8.103E-01  1.237E-04  2.177E-04 -1.420E-04
   1    4   90     1    90    8.0489E-03  7.5385E-05   7.9735E-03  0.000E+00  0.000E+00  0.000E+00  1.13262E+02  1.116E-01  8.074E-01  1.233E-04  2.080E-04 -1.327E-04
   1    4   91     1    91    7.9735E-03  7.5070E-05   7.8984E-03  0.000E+00  0.000E+00  0.000E+00  1.12961E+02  1.112E-01  8.046E-01  1.228E-04  2.025E-04 -1.275E-04
   1    4   92     1    92    7.8984E-03  7.4755E-05   7.8236E-03  0.000E+00  0.000E+00  0.000E+00  1.12661E+02  1.108E-01  8.017E-01  1.224E-04  2.039E-04 -1.292E-04
   1    4   93     1    93    7.8236E-03  7.4440E-05   7.7492E-03  0.000E+00  0.000E+00  0.000E+00  1.12360E+02  1.104E-01  7.989E-01  1.220E-04  2.054E-04 -1.310E-04
   1    4   94     1    94    7.7492E-03  7.4125E-05   7.6751E-03  0.000E+00  0.000E+00  0.000E+00  1.12060E+02  1.100E-01  7.960E-01  1.215E-04  2.069E-04 -1.328E-04
   1    4   95     1    95    7.6751E-03  7.3809E-05   7.6013E-03  0.000E+00  0.000E+00  0.000E+00  1.11760E+02  1.096E-01  7.931E-01  1.211E-04  1.990E-04 -1.252E-04
   1    4   96     1    96    7.6013E-03  7.3494E-05   7.5278E-03  0.000E+00  0.000E+00  0.000E+00  1.11459E+02  1.092E-01  7.902E-01  1.206E-04  1.900E-04 -1.166E-04
   1    4   97     1    97    7.5278E-03  7.3178E-05   7.4546E-03  0.000E+00  0.000E+00  0.000E+00  1.11159E+02  1.088E-01  7.874E-01  1.202E-04  1.833E-04 -1.102E-04
   1    4   98     1    98    7.4546E-03  7.2862E-05   7.3817E-03  0.000E+00  0.000E+00  0.000E+00  1.10858E+02  1.084E-01  7.845E-01  1.198E-04  1.851E-04 -1.122E-04
   1    4   99     1    99    7.3817E-03  7.2545E-05   7.3092E-03  0.000E+00  0.000E+00  0.000E+00  1.10558E+02  1.080E-01  7.816E-01  1.193E-04  1.868E-04 -1.143E-04
   1    4  100     1   100    7.3092E-03  7.2229E-05   7.2370E-03  0.000E+00  0.000E+00  0.000E+00  1.10258E+02  1.076E-01  7.787E-01  1.189E-04  1.886E-04 -1.164E-04



1
  VOLUMETRIC BUDGET FOR UNSATURATED ZONE BENEATH STREAMS AT END OF TIME STEP    30 STRESS PERIOD  36
  ------------------------------------------------------------------------------------------------

    CUMULATIVE VOLUMES             L**3    RATES FOR THIS TIME STEP         L**3/T
    ------------------                     ------------------------


          STREAM LOSS =     30238900.0000            STREAM LOSS =        8.7630E-03
    CHANGE IN STORAGE =       920686.0000      CHANGE IN STORAGE =       -2.2049E-02
       RECHARGE TO GW =     29325334.0000         RECHARGE TO GW =        3.0809E-02

             TOTAL IN =     30238900.0000               TOTAL IN =        3.0812E-02

            TOTAL OUT =     30246020.0000              TOTAL OUT =        3.0809E-02

             IN - OUT =        -7120.0000               IN - OUT =        2.9802E-06

  PERCENT DISCREPANCY =           -0.01      PERCENT DISCREPANCY =             0.00



1
  VOLUMETRIC BUDGET FOR ENTIRE MODEL AT END OF TIME STEP   30, STRESS PERIOD  36
  ------------------------------------------------------------------------------

     CUMULATIVE VOLUMES      L**3       RATES FOR THIS TIME STEP      L**3/T
     ------------------                 ------------------------

           IN:                                      IN:
           ---                                      ---
             STORAGE     =   106267112.0000               STORAGE     =           0.4798
       CONSTANT HEAD     =           0.0000         CONSTANT HEAD     =           0.0000
               WELLS     =           0.0000                 WELLS     =           0.0000
     HEAD DEP BOUNDS     =     1035112.8125       HEAD DEP BOUNDS     =       7.3502E-02
      STREAM LEAKAGE     =    29325202.0000        STREAM LEAKAGE     =       3.0809E-02

                TOTAL IN =   136627424.0000                  TOTAL IN =           0.5841

          OUT:                                     OUT:
          ----                                     ----
             STORAGE     =     3380538.2500               STORAGE     =       1.0859E-02
       CONSTANT HEAD     =           0.0000         CONSTANT HEAD     =           0.0000
               WELLS     =   116861000.0000                 WELLS     =           0.5732
     HEAD DEP BOUNDS     =    16385952.0000       HEAD DEP BOUNDS     =           0.0000
      STREAM LEAKAGE     =           0.0000        STREAM LEAKAGE     =           0.0000

               TOTAL OUT =   136627488.0000                 TOTAL OUT =           0.5841

                IN - OUT =         -64.0000                  IN - OUT =           0.0000

     PERCENT DISCREPANCY =          -0.00         PERCENT DISCREPANCY =           0.00






         TIME SUMMARY AT END OF TIME STEP   30 IN STRESS PERIOD   36
                    SECONDS     MINUTES      HOURS       DAYS        YEARS
                    -----------------------------------------------------------
   TIME STEP LENGTH 2.49961E+05  4166.0      69.434      2.8931     7.92080E-03
 STRESS PERIOD TIME 2.59200E+06  43200.      720.00      30.000     8.21355E-02
         TOTAL TIME 9.33120E+07 1.55520E+06  25920.      1080.0      2.9569    
1
1
                            STRESS PERIOD NO.   37, LENGTH =   2592000.    
                            -----------------------------------------------

                              NUMBER OF TIME STEPS =    30

                               MULTIPLIER FOR DELT =     1.100

                            INITIAL TIME STEP SIZE =   15757.40    

 REUSING NON-PARAMETER WELLS FROM LAST STRESS PERIOD

      1 WELL 

 REUSING NON-PARAMETER GHB CELLS FROM LAST STRESS PERIOD

      7 GHB CELLS



 CLASSIFICATION & COUNT OF STREAM SEGMENTS BASED ON SOURCE OF INFLOW:

                HEADWATER     DIVERSION     RECEIVES TRIBUTARY FLOW
                ---------     ---------     -----------------------
                     1              0               0



                    INPUT DATA FOR EACH STREAM SEGMENT
 ---------------------------------------------------------------------------------------------

 SEGMENT    SEG.     INFLOW   OVERLAND   STREAM    STREAM   ICALC  OUTFLOW  DIVERSION PRIORITY
    NO.    LENGTH     RATE     RUNOFF      ET       PPT.    METH.  TO SEG.  FROM SEG.    NO.

      1  2.000E+04 6.200E-02 0.000E+00 0.000E+00 0.000E+00    2        0        0        0


         STREAMBED PROPERTIES AND STREAM DIMENSIONS

 SEGMENT     BED HYD. COND.      BED THICKNESS     ELEV.-TOP OF BED     WIDTH OF STREAM     DEPTH OF STREAM    STREAM ROUGHNESS
    No.     UPPER     LOWER     UPPER     LOWER     UPPER     LOWER     UPPER     LOWER     UPPER     LOWER   CHANNEL      BANK

     1  3.500E-07 3.500E-07                                                                                 3.000E-02 4.000E-02

  EIGHT POINT CROSS-SECTION DATA FOR SEGMENTS WITH ICALC = 2
    X VALUES X VALUES START FROM LEFT SIDE LOOKING DOWNSTREAM

     SEGMENT NO.        X1        X2        X3        X4        X5        X6        X7        X8
            1      0.000E+00 2.000E+00 4.000E+00 6.000E+00 8.000E+00 1.000E+01 1.200E+01 1.400E+01

    Z VALUES ARE RELATIVE TO STREAMBED ELEVATION

     SEGMENT NO.          Z1        Z2        Z3        Z4        Z5        Z6        Z7        Z8
            1      6.000E+00 4.500E+00 3.500E+00 0.000E+00 3.000E-01 3.500E+00 4.500E+00 6.000E+00



 
 SOLVING FOR HEAD 
                                                   Max.-Head-Change                         Max.-Flux-Residual
  Residual-Control   Outer-Iter.   Inner-Iter.     Column Row Layer    Maximum-Head-Change  Column Row Layer    Maximum-Flux-Residual          L2-NORM 
          0                 1           2            50    3     1      -0.3496746778E+00      50    3    1        -0.1163238286E+00      0.1485804596E+00
          0                 2           2            50    3     1       0.3526956979E-01      50    3    1         0.1194274123E-01      0.1507403262E-01
          0                 3           2            50    3     1      -0.3131959160E-02      50    3    1        -0.1072397865E-02      0.1355759764E-02
          0                 4           2            50    3     1       0.2482326197E-03      50    3    1         0.8591950233E-04      0.1086803953E-03
          0                 5           1            50    3     1      -0.1727249969E-04      50    3    1        -0.6039927669E-05      0.7644813924E-05
          0                 6           1            50    3     1       0.1036428226E-05      50    3    1         0.3659962703E-06      0.4634739196E-06
          0                 7           1            50    3     1      -0.5234813877E-07      50    3    1        -0.1866217691E-07      0.2364049759E-07

    ------------------------------------------------
       NWT REQUIRED            7 OUTER ITERATIONS 
       AND A TOTAL OF         11 INNER ITERATIONS.
    ------------------------------------------------

 NO OUTPUT CONTROL FOR STRESS PERIOD   37   TIME STEP    1
 
 WELLS WITH REDUCED PUMPING FOR STRESS PERIOD    37 TIME STEP     1
   LAY   ROW   COL         APPL.Q          ACT.Q        GW-HEAD       CELL-BOT
     1     3    50  -0.680112E+00  -0.411447E+00   0.638899E+01   0.000000E+00
     1     5    55  -0.680112E+00  -0.317466E+00   0.530404E+01   0.000000E+00
 
 
 SOLVING FOR HEAD 
                                                   Max.-Head-Change                         Max.-Flux-Residual
  Residual-Control   Outer-Iter.   Inner-Iter.     Column Row Layer    Maximum-Head-Change  Column Row Layer    Maximum-Flux-Residual          L2-NORM 
          0                 1           2            50    3     1      -0.2353463685E+00      50    3    1        -0.7249356557E-01      0.9474458325E-01
          0                 2           2            50    3     1       0.2335278696E-01      50    3    1         0.7327008795E-02      0.9472166171E-02
          0                 3           2            50    3     1      -0.2068445021E-02      50    3    1        -0.6588539006E-03      0.8521644603E-03
          0                 4           2            50    3     1       0.1634739959E-03      50    3    1         0.5277930661E-04      0.6833505335E-04
          0                 5           1            50    3     1      -0.1135324915E-04      50    3    1        -0.3710300333E-05      0.4810821466E-05
          0                 6           1            50    3     1       0.6803916104E-06      50    3    1         0.2248294315E-06      0.2918941313E-06

    ------------------------------------------------
       NWT REQUIRED            6 OUTER ITERATIONS 
       AND A TOTAL OF         10 INNER ITERATIONS.
    ------------------------------------------------

 NO OUTPUT CONTROL FOR STRESS PERIOD   37   TIME STEP    2
 
 WELLS WITH REDUCED PUMPING FOR STRESS PERIOD    37 TIME STEP     2
   LAY   ROW   COL         APPL.Q          ACT.Q        GW-HEAD       CELL-BOT
     1     3    50  -0.680112E+00  -0.392254E+00   0.617508E+01   0.000000E+00
     1     5    55  -0.680112E+00  -0.302053E+00   0.513574E+01   0.000000E+00
 
 
 SOLVING FOR HEAD 
                                                   Max.-Head-Change                         Max.-Flux-Residual
  Residual-Control   Outer-Iter.   Inner-Iter.     Column Row Layer    Maximum-Head-Change  Column Row Layer    Maximum-Flux-Residual          L2-NORM 
          0                 1           2            50    3     1      -0.1568127367E+00      50    3    1        -0.4431304333E-01      0.6153369693E-01
          0                 2           2            50    3     1       0.1538332275E-01      50    3    1         0.4445941343E-02      0.6082603232E-02
          0                 3           2            50    3     1      -0.1357679202E-02      50    3    1        -0.4000431976E-03      0.5461965916E-03
          0                 4           1            50    3     1       0.1069595357E-03      50    3    1         0.3204442741E-04      0.4381400791E-04
          0                 5           1            50    3     1      -0.7411535288E-05      50    3    1        -0.2252675238E-05      0.3088842578E-05
          0                 6           1            50    3     1       0.4434809391E-06      50    3    1         0.1365026618E-06      0.1877081677E-06

    ------------------------------------------------
       NWT REQUIRED            6 OUTER ITERATIONS 
       AND A TOTAL OF          9 INNER ITERATIONS.
    ------------------------------------------------

 NO OUTPUT CONTROL FOR STRESS PERIOD   37   TIME STEP    3
 
 WELLS WITH REDUCED PUMPING FOR STRESS PERIOD    37 TIME STEP     3
   LAY   ROW   COL         APPL.Q          ACT.Q        GW-HEAD       CELL-BOT
     1     3    50  -0.679912E+00  -0.379251E+00   0.603239E+01   0.000000E+00
     1     5    55  -0.679912E+00  -0.291661E+00   0.502278E+01   0.000000E+00
 
 
 SOLVING FOR HEAD 
                                                   Max.-Head-Change                         Max.-Flux-Residual
  Residual-Control   Outer-Iter.   Inner-Iter.     Column Row Layer    Maximum-Head-Change  Column Row Layer    Maximum-Flux-Residual          L2-NORM 
          0                 1           2            50    3     1      -0.1053073187E+00      50    3    1        -0.2704272868E-01      0.4264753462E-01
          0                 2           2            50    3     1       0.1024242808E-01      50    3    1         0.2705462823E-02      0.4170952480E-02
          0                 3           2            50    3     1      -0.8997789417E-03      50    3    1        -0.2434985865E-03      0.3734834330E-03
          0                 4           1            50    3     1       0.7061729576E-04      50    3    1         0.1950427786E-04      0.2999103449E-04
          0                 5           1            50    3     1      -0.4879535550E-05      50    3    1        -0.1371114136E-05      0.2120046650E-05
          0                 6           1            50    3     1       0.2913948379E-06      50    3    1         0.8308307692E-07      0.1292231767E-06

    ------------------------------------------------
       NWT REQUIRED            6 OUTER ITERATIONS 
       AND A TOTAL OF          9 INNER ITERATIONS.
    ------------------------------------------------

 NO OUTPUT CONTROL FOR STRESS PERIOD   37   TIME STEP    4
 
 WELLS WITH REDUCED PUMPING FOR STRESS PERIOD    37 TIME STEP     4
   LAY   ROW   COL         APPL.Q          ACT.Q        GW-HEAD       CELL-BOT
     1     3    50  -0.680094E+00  -0.370659E+00   0.593649E+01   0.000000E+00
     1     5    55  -0.680094E+00  -0.284819E+00   0.494670E+01   0.000000E+00
 
 
 SOLVING FOR HEAD 
                                                   Max.-Head-Change                         Max.-Flux-Residual
  Residual-Control   Outer-Iter.   Inner-Iter.     Column Row Layer    Maximum-Head-Change  Column Row Layer    Maximum-Flux-Residual          L2-NORM 
          0                 1           2            50    3     1      -0.7127181853E-01      50    3    1        -0.1643532123E-01      0.3244119620E-01
          0                 2           2            50    3     1       0.6879854609E-02      50    3    1         0.1643328119E-02      0.3146461526E-02
          0                 3           2            50    3     1      -0.6010446247E-03      50    3    1        -0.1479118813E-03      0.2812779627E-03
          0                 4           1            50    3     1       0.4696183035E-04      50    3    1         0.1184767249E-04      0.2264561271E-04
          0                 5           1            50    3     1      -0.3233908226E-05      50    3    1        -0.8328579440E-06      0.1607800563E-05
          0                 6           1            50    3     1       0.1926407898E-06      50    3    1         0.5046653928E-07      0.9845696830E-07

    ------------------------------------------------
       NWT REQUIRED            6 OUTER ITERATIONS 
       AND A TOTAL OF          9 INNER ITERATIONS.
    ------------------------------------------------

 NO OUTPUT CONTROL FOR STRESS PERIOD   37   TIME STEP    5
 
 WELLS WITH REDUCED PUMPING FOR STRESS PERIOD    37 TIME STEP     5
   LAY   ROW   COL         APPL.Q          ACT.Q        GW-HEAD       CELL-BOT
     1     3    50  -0.680047E+00  -0.364736E+00   0.587154E+01   0.000000E+00
     1     5    55  -0.680047E+00  -0.280138E+00   0.489532E+01   0.000000E+00
 
 
 SOLVING FOR HEAD 
                                                   Max.-Head-Change                         Max.-Flux-Residual
  Residual-Control   Outer-Iter.   Inner-Iter.     Column Row Layer    Maximum-Head-Change  Column Row Layer    Maximum-Flux-Residual          L2-NORM 
          0                 1           2            50    3     1      -0.4933420332E-01      50    3    1        -0.1008901704E-01      0.2733660603E-01
          0                 2           2            50    3     1       0.4728384518E-02      50    3    1         0.1009369596E-02      0.2642425969E-02
          0                 3           2            50    3     1      -0.4105777983E-03      50    3    1        -0.9084614890E-04      0.2364125443E-03
          0                 4           1            50    3     1       0.3192157733E-04      50    3    1         0.7276755561E-05      0.1910567304E-04
          0                 5           1            50    3     1      -0.2189623214E-05      50    3    1        -0.5115249441E-06      0.1363273930E-05
          0                 6           1            50    3     1       0.1300506474E-06      50    3    1         0.3099490181E-07      0.8391255467E-07

    ------------------------------------------------
       NWT REQUIRED            6 OUTER ITERATIONS 
       AND A TOTAL OF          9 INNER ITERATIONS.
    ------------------------------------------------

 NO OUTPUT CONTROL FOR STRESS PERIOD   37   TIME STEP    6
 
 WELLS WITH REDUCED PUMPING FOR STRESS PERIOD    37 TIME STEP     6
   LAY   ROW   COL         APPL.Q          ACT.Q        GW-HEAD       CELL-BOT
     1     3    50  -0.679961E+00  -0.360601E+00   0.582656E+01   0.000000E+00
     1     5    55  -0.679961E+00  -0.276906E+00   0.486001E+01   0.000000E+00
 
 
 SOLVING FOR HEAD 
                                                   Max.-Head-Change                         Max.-Flux-Residual
  Residual-Control   Outer-Iter.   Inner-Iter.     Column Row Layer    Maximum-Head-Change  Column Row Layer    Maximum-Flux-Residual          L2-NORM 
          0                 1           2            50    2     1      -0.3972010629E-01      50    3    1        -0.6361100196E-02      0.2484081496E-01
          0                 2           2            50    2     1       0.3914996310E-02      50    3    1         0.6370917593E-03      0.2402102275E-02
          0                 3           2            50    2     1      -0.3481158714E-03      50    3    1        -0.5733421207E-04      0.2153866708E-03
          0                 4           1            50    2     1       0.2756569144E-04      50    3    1         0.4592496029E-05      0.1747130366E-04
          0                 5           1            50    2     1      -0.1916950182E-05      50    3    1        -0.3228233728E-06      0.1252169009E-05
          0                 6           1            50    2     1       0.1149669957E-06      50    3    1         0.1956028756E-07      0.7742216437E-07

    ------------------------------------------------
       NWT REQUIRED            6 OUTER ITERATIONS 
       AND A TOTAL OF          9 INNER ITERATIONS.
    ------------------------------------------------

 NO OUTPUT CONTROL FOR STRESS PERIOD   37   TIME STEP    7
 
 WELLS WITH REDUCED PUMPING FOR STRESS PERIOD    37 TIME STEP     7
   LAY   ROW   COL         APPL.Q          ACT.Q        GW-HEAD       CELL-BOT
     1     3    50  -0.679922E+00  -0.357640E+00   0.579422E+01   0.000000E+00
     1     5    55  -0.679922E+00  -0.274623E+00   0.483493E+01   0.000000E+00
 
 
 SOLVING FOR HEAD 
                                                   Max.-Head-Change                         Max.-Flux-Residual
  Residual-Control   Outer-Iter.   Inner-Iter.     Column Row Layer    Maximum-Head-Change  Column Row Layer    Maximum-Flux-Residual          L2-NORM 
          0                 1           2            50    2     1      -0.3610937817E-01      50    2    1        -0.4659116361E-02      0.2355656749E-01
          0                 2           2            50    2     1       0.3557241641E-02      50    2    1         0.4646521035E-03      0.2281328671E-02
          0                 3           2            50    2     1      -0.3162766444E-03      50    2    1        -0.4183152278E-04      0.2049761775E-03
          0                 4           1            50    2     1       0.2504165079E-04      50    2    1         0.3350600232E-05      0.1667497925E-04
          0                 5           1            50    2     1      -0.1741248335E-05      50    2    1        -0.2355446265E-06      0.1199248705E-05
          0                 6           1            50    2     1       0.1044200353E-06      50    2    1         0.1427307031E-07      0.7442694120E-07

    ------------------------------------------------
       NWT REQUIRED            6 OUTER ITERATIONS 
       AND A TOTAL OF          9 INNER ITERATIONS.
    ------------------------------------------------

 NO OUTPUT CONTROL FOR STRESS PERIOD   37   TIME STEP    8
 
 WELLS WITH REDUCED PUMPING FOR STRESS PERIOD    37 TIME STEP     8
   LAY   ROW   COL         APPL.Q          ACT.Q        GW-HEAD       CELL-BOT
     1     3    50  -0.679940E+00  -0.355434E+00   0.576987E+01   0.000000E+00
     1     5    55  -0.679940E+00  -0.272948E+00   0.481631E+01   0.000000E+00
 
 
 SOLVING FOR HEAD 
                                                   Max.-Head-Change                         Max.-Flux-Residual
  Residual-Control   Outer-Iter.   Inner-Iter.     Column Row Layer    Maximum-Head-Change  Column Row Layer    Maximum-Flux-Residual          L2-NORM 
          0                 1           2            50    2     1      -0.3277205438E-01      50    2    1        -0.3850727449E-02      0.2282791831E-01
          0                 2           2            50    2     1       0.3227447323E-02      50    2    1         0.3839588866E-03      0.2213583032E-02
          0                 3           2            50    2     1      -0.2869078283E-03      50    2    1        -0.3456756583E-04      0.1991918242E-03
          0                 4           1            50    2     1       0.2271308269E-04      50    2    1         0.2768770479E-05      0.1624152732E-04
          0                 5           1            50    2     1      -0.1579127880E-05      50    2    1        -0.1946424718E-06      0.1171504034E-05
          0                 6           1            50    2     1       0.9468731727E-07      50    2    1         0.1179456158E-07      0.7294692261E-07

    ------------------------------------------------
       NWT REQUIRED            6 OUTER ITERATIONS 
       AND A TOTAL OF          9 INNER ITERATIONS.
    ------------------------------------------------

 NO OUTPUT CONTROL FOR STRESS PERIOD   37   TIME STEP    9
 
 WELLS WITH REDUCED PUMPING FOR STRESS PERIOD    37 TIME STEP     9
   LAY   ROW   COL         APPL.Q          ACT.Q        GW-HEAD       CELL-BOT
     1     3    50  -0.679972E+00  -0.353704E+00   0.575067E+01   0.000000E+00
     1     5    55  -0.679972E+00  -0.271655E+00   0.480184E+01   0.000000E+00
 
 
 SOLVING FOR HEAD 
                                                   Max.-Head-Change                         Max.-Flux-Residual
  Residual-Control   Outer-Iter.   Inner-Iter.     Column Row Layer    Maximum-Head-Change  Column Row Layer    Maximum-Flux-Residual          L2-NORM 
          0                 1           2            50    2     1      -0.2982483732E-01      50    2    1        -0.3177216983E-02      0.2236705994E-01
          0                 2           2            50    2     1       0.2936474039E-02      50    2    1         0.3168124946E-03      0.2170843807E-02
          0                 3           2            50    2     1      -0.2609812464E-03      50    2    1        -0.2852229514E-04      0.1955504768E-03
          0                 4           1            50    2     1       0.2065683424E-04      50    2    1         0.2284561477E-05      0.1597368306E-04
          0                 5           1            50    2     1      -0.1435925786E-05      50    2    1        -0.1606029371E-06      0.1155121186E-05
          0                 6           1            50    2     1       0.8608846638E-07      50    2    1         0.9731901396E-08      0.7214786990E-07

    ------------------------------------------------
       NWT REQUIRED            6 OUTER ITERATIONS 
       AND A TOTAL OF          9 INNER ITERATIONS.
    ------------------------------------------------

 NO OUTPUT CONTROL FOR STRESS PERIOD   37   TIME STEP   10
 
 WELLS WITH REDUCED PUMPING FOR STRESS PERIOD    37 TIME STEP    10
   LAY   ROW   COL         APPL.Q          ACT.Q        GW-HEAD       CELL-BOT
     1     3    50  -0.679942E+00  -0.352264E+00   0.573502E+01   0.000000E+00
     1     5    55  -0.679942E+00  -0.270594E+00   0.479020E+01   0.000000E+00
 
 
 SOLVING FOR HEAD 
                                                   Max.-Head-Change                         Max.-Flux-Residual
  Residual-Control   Outer-Iter.   Inner-Iter.     Column Row Layer    Maximum-Head-Change  Column Row Layer    Maximum-Flux-Residual          L2-NORM 
          0                 1           2            50    1     1      -0.2814330719E-01      50    2    1        -0.2628684177E-02      0.2206153615E-01
          0                 2           2            50    1     1       0.2782825199E-02      50    2    1         0.2621686771E-03      0.2142199949E-02
          0                 3           2            50    1     1      -0.2479951719E-03      50    2    1        -0.2360224428E-04      0.1931363720E-03
          0                 4           1            50    1     1       0.1967097418E-04      50    2    1         0.1890482503E-05      0.1580298334E-04
          0                 5           1            50    1     1      -0.1369261103E-05      50    2    1        -0.1328994562E-06      0.1145519158E-05
          0                 6           1            50    1     1       0.8216603361E-07      50    2    1         0.8053179901E-08      0.7175911238E-07

    ------------------------------------------------
       NWT REQUIRED            6 OUTER ITERATIONS 
       AND A TOTAL OF          9 INNER ITERATIONS.
    ------------------------------------------------

 NO OUTPUT CONTROL FOR STRESS PERIOD   37   TIME STEP   11
 
 WELLS WITH REDUCED PUMPING FOR STRESS PERIOD    37 TIME STEP    11
   LAY   ROW   COL         APPL.Q          ACT.Q        GW-HEAD       CELL-BOT
     1     3    50  -0.680022E+00  -0.351076E+00   0.572151E+01   0.000000E+00
     1     5    55  -0.680022E+00  -0.269728E+00   0.478025E+01   0.000000E+00
 
 
 SOLVING FOR HEAD 
                                                   Max.-Head-Change                         Max.-Flux-Residual
  Residual-Control   Outer-Iter.   Inner-Iter.     Column Row Layer    Maximum-Head-Change  Column Row Layer    Maximum-Flux-Residual          L2-NORM 
          0                 1           2            50    1     1      -0.2766510614E-01      50    1    1        -0.2254068845E-02      0.2183743458E-01
          0                 2           2            50    1     1       0.2734601235E-02      50    1    1         0.2250639704E-03      0.2120924722E-02
          0                 3           2            50    1     1      -0.2436731361E-03      50    1    1        -0.2025916583E-04      0.1913087711E-03
          0                 4           1            50    1     1       0.1932616140E-04      50    1    1         0.1622732212E-05      0.1567568758E-04
          0                 5           1            50    1     1      -0.1344983540E-05      50    1    1        -0.1140154942E-06      0.1138820035E-05
          0                 6           1            50    1     1       0.8069292231E-07      50    1    1         0.6904821159E-08      0.7154366046E-07

    ------------------------------------------------
       NWT REQUIRED            6 OUTER ITERATIONS 
       AND A TOTAL OF          9 INNER ITERATIONS.
    ------------------------------------------------

 NO OUTPUT CONTROL FOR STRESS PERIOD   37   TIME STEP   12
 
 WELLS WITH REDUCED PUMPING FOR STRESS PERIOD    37 TIME STEP    12
   LAY   ROW   COL         APPL.Q          ACT.Q        GW-HEAD       CELL-BOT
     1     3    50  -0.680034E+00  -0.350005E+00   0.570967E+01   0.000000E+00
     1     5    55  -0.680034E+00  -0.268957E+00   0.477164E+01   0.000000E+00
 
 
 SOLVING FOR HEAD 
                                                   Max.-Head-Change                         Max.-Flux-Residual
  Residual-Control   Outer-Iter.   Inner-Iter.     Column Row Layer    Maximum-Head-Change  Column Row Layer    Maximum-Flux-Residual          L2-NORM 
          0                 1           2            50    1     1      -0.2686599067E-01      50    1    1        -0.2014402294E-02      0.2166584888E-01
          0                 2           2            50    1     1       0.2654852924E-02      50    1    1         0.2010862008E-03      0.2104645439E-02
          0                 3           2            50    1     1      -0.2365361763E-03      50    1    1        -0.1810126786E-04      0.1899302987E-03
          0                 4           1            50    1     1       0.1875762523E-04      50    1    1         0.1449883744E-05      0.1558324199E-04
          0                 5           1            50    1     1      -0.1305039214E-05      50    1    1        -0.1018466936E-06      0.1134429378E-05
          0                 6           1            50    1     1       0.7827346244E-07      50    1    1         0.6166229638E-08      0.7146202108E-07

    ------------------------------------------------
       NWT REQUIRED            6 OUTER ITERATIONS 
       AND A TOTAL OF          9 INNER ITERATIONS.
    ------------------------------------------------

 NO OUTPUT CONTROL FOR STRESS PERIOD   37   TIME STEP   13
 
 WELLS WITH REDUCED PUMPING FOR STRESS PERIOD    37 TIME STEP    13
   LAY   ROW   COL         APPL.Q          ACT.Q        GW-HEAD       CELL-BOT
     1     3    50  -0.680034E+00  -0.349037E+00   0.569904E+01   0.000000E+00
     1     5    55  -0.680034E+00  -0.268270E+00   0.476400E+01   0.000000E+00
 
 
 SOLVING FOR HEAD 
                                                   Max.-Head-Change                         Max.-Flux-Residual
  Residual-Control   Outer-Iter.   Inner-Iter.     Column Row Layer    Maximum-Head-Change  Column Row Layer    Maximum-Flux-Residual          L2-NORM 
          0                 1           2            50    1     1      -0.2585743004E-01      50    1    1        -0.1778426542E-02      0.2153524749E-01
          0                 2           2            50    1     1       0.2553867734E-02      50    1    1         0.1775049765E-03      0.2091774112E-02
          0                 3           2            50    1     1      -0.2274629518E-03      50    1    1        -0.1597880017E-04      0.1888073292E-03
          0                 4           1            50    1     1       0.1803350054E-04      50    1    1         0.1279875260E-05      0.1550892027E-04
          0                 5           1            50    1     1      -0.1254135837E-05      50    1    1        -0.8987447503E-07      0.1131195753E-05
          0                 6           1            50    1     1       0.7519163698E-07      50    1    1         0.5439327821E-08      0.7144796540E-07

    ------------------------------------------------
       NWT REQUIRED            6 OUTER ITERATIONS 
       AND A TOTAL OF          9 INNER ITERATIONS.
    ------------------------------------------------

 NO OUTPUT CONTROL FOR STRESS PERIOD   37   TIME STEP   14
 
 WELLS WITH REDUCED PUMPING FOR STRESS PERIOD    37 TIME STEP    14
   LAY   ROW   COL         APPL.Q          ACT.Q        GW-HEAD       CELL-BOT
     1     3    50  -0.680014E+00  -0.348132E+00   0.568922E+01   0.000000E+00
     1     5    55  -0.680014E+00  -0.267631E+00   0.475700E+01   0.000000E+00
 
 
 SOLVING FOR HEAD 
                                                   Max.-Head-Change                         Max.-Flux-Residual
  Residual-Control   Outer-Iter.   Inner-Iter.     Column Row Layer    Maximum-Head-Change  Column Row Layer    Maximum-Flux-Residual          L2-NORM 
          0                 1           2            50    1     1      -0.2473115246E-01      50    1    1        -0.1556133627E-02      0.2142867200E-01
          0                 2           2            50    1     1       0.2440995231E-02      50    1    1         0.1553073275E-03      0.2081468654E-02
          0                 3           2            50    1     1      -0.2173675393E-03      50    1    1        -0.1398070728E-04      0.1879280733E-03
          0                 4           1            50    1     1       0.1723006097E-04      50    1    1         0.1119830420E-05      0.1545334127E-04
          0                 5           1            50    1     1      -0.1197688363E-05      50    1    1        -0.7859953460E-07      0.1129090338E-05
          0                 6           1            50    1     1       0.7177183123E-07       1    4    1        -0.4842434009E-08      0.7149152289E-07

    ------------------------------------------------
       NWT REQUIRED            6 OUTER ITERATIONS 
       AND A TOTAL OF          9 INNER ITERATIONS.
    ------------------------------------------------

 NO OUTPUT CONTROL FOR STRESS PERIOD   37   TIME STEP   15
 
 WELLS WITH REDUCED PUMPING FOR STRESS PERIOD    37 TIME STEP    15
   LAY   ROW   COL         APPL.Q          ACT.Q        GW-HEAD       CELL-BOT
     1     3    50  -0.680014E+00  -0.347296E+00   0.568004E+01   0.000000E+00
     1     5    55  -0.680014E+00  -0.267039E+00   0.475042E+01   0.000000E+00
 
 
 SOLVING FOR HEAD 
                                                   Max.-Head-Change                         Max.-Flux-Residual
  Residual-Control   Outer-Iter.   Inner-Iter.     Column Row Layer    Maximum-Head-Change  Column Row Layer    Maximum-Flux-Residual          L2-NORM 
          0                 1           2             1    1     1      -0.2509273312E-01      50    1    1        -0.1353135879E-02      0.2133993528E-01
          0                 2           2             1    1     1       0.2393803209E-02      50    1    1         0.1350455562E-03      0.2073024453E-02
          0                 3           2            50    1     1      -0.2068158905E-03      50    1    1        -0.1215677446E-04      0.1872056571E-03
          0                 4           1            50    1     1       0.1638669042E-04      50    1    1         0.9737362796E-06      0.1540967329E-04
          0                 5           1            50    1     1      -0.1138262147E-05      50    1    1        -0.6830225041E-07      0.1127626134E-05
          0                 6           1            50    1     1       0.6816640003E-07       1    4    1        -0.4935696296E-08      0.7156030525E-07

    ------------------------------------------------
       NWT REQUIRED            6 OUTER ITERATIONS 
       AND A TOTAL OF          9 INNER ITERATIONS.
    ------------------------------------------------

 NO OUTPUT CONTROL FOR STRESS PERIOD   37   TIME STEP   16
 
 WELLS WITH REDUCED PUMPING FOR STRESS PERIOD    37 TIME STEP    16
   LAY   ROW   COL         APPL.Q          ACT.Q        GW-HEAD       CELL-BOT
     1     3    50  -0.680014E+00  -0.346511E+00   0.567142E+01   0.000000E+00
     1     5    55  -0.680014E+00  -0.266481E+00   0.474422E+01   0.000000E+00
 
 
 SOLVING FOR HEAD 
                                                   Max.-Head-Change                         Max.-Flux-Residual
  Residual-Control   Outer-Iter.   Inner-Iter.     Column Row Layer    Maximum-Head-Change  Column Row Layer    Maximum-Flux-Residual          L2-NORM 
          0                 1           2             1    1     1      -0.2758342694E-01       1    2    1        -0.1251912198E-02      0.2126703658E-01
          0                 2           2             1    1     1       0.2626922357E-02       1    1    1         0.1251894499E-03      0.2065846196E-02
          0                 3           2             1    1     1      -0.2251364579E-03       1    7    1        -0.1126722046E-04      0.1865866440E-03
          0                 4           1             1    1     1       0.1717038001E-04       1    7    1         0.9025022063E-06      0.1537335736E-04
          0                 5           1             1    1     1      -0.1147133878E-05       1    7    1        -0.6344505321E-07      0.1126457475E-05
          0                 6           1             1    1     1       0.6607395595E-07       2    4    1        -0.5024627825E-08      0.7163309353E-07

    ------------------------------------------------
       NWT REQUIRED            6 OUTER ITERATIONS 
       AND A TOTAL OF          9 INNER ITERATIONS.
    ------------------------------------------------

 NO OUTPUT CONTROL FOR STRESS PERIOD   37   TIME STEP   17
 
 WELLS WITH REDUCED PUMPING FOR STRESS PERIOD    37 TIME STEP    17
   LAY   ROW   COL         APPL.Q          ACT.Q        GW-HEAD       CELL-BOT
     1     3    50  -0.680029E+00  -0.345762E+00   0.566311E+01   0.000000E+00
     1     5    55  -0.680029E+00  -0.265950E+00   0.473825E+01   0.000000E+00
 
 
 SOLVING FOR HEAD 
                                                   Max.-Head-Change                         Max.-Flux-Residual
  Residual-Control   Outer-Iter.   Inner-Iter.     Column Row Layer    Maximum-Head-Change  Column Row Layer    Maximum-Flux-Residual          L2-NORM 
          0                 1           2             1    1     1      -0.3032008145E-01       1    7    1        -0.1251254234E-02      0.2120619357E-01
          0                 2           2             1    1     1       0.2882794988E-02       1    7    1         0.1251235714E-03      0.2059836963E-02
          0                 3           2             1    1     1      -0.2465849059E-03       1    1    1        -0.1126131542E-04      0.1860512943E-03
          0                 4           1             1    1     1       0.1876213202E-04       1    1    1         0.9020288623E-06      0.1534099921E-04
          0                 5           1             1    1     1      -0.1248939863E-05       1    1    1        -0.6341177894E-07      0.1125108247E-05
          0                 6           1             1    1     1       0.7163852285E-07       2    4    1        -0.5108013568E-08      0.7166529785E-07

    ------------------------------------------------
       NWT REQUIRED            6 OUTER ITERATIONS 
       AND A TOTAL OF          9 INNER ITERATIONS.
    ------------------------------------------------

 NO OUTPUT CONTROL FOR STRESS PERIOD   37   TIME STEP   18
 
 WELLS WITH REDUCED PUMPING FOR STRESS PERIOD    37 TIME STEP    18
   LAY   ROW   COL         APPL.Q          ACT.Q        GW-HEAD       CELL-BOT
     1     3    50  -0.680022E+00  -0.345029E+00   0.565509E+01   0.000000E+00
     1     5    55  -0.680022E+00  -0.265433E+00   0.473252E+01   0.000000E+00
 
 
 SOLVING FOR HEAD 
                                                   Max.-Head-Change                         Max.-Flux-Residual
  Residual-Control   Outer-Iter.   Inner-Iter.     Column Row Layer    Maximum-Head-Change  Column Row Layer    Maximum-Flux-Residual          L2-NORM 
          0                 1           2             1    1     1      -0.3335069518E-01       1    7    1        -0.1250539067E-02      0.2116124043E-01
          0                 2           2             1    1     1       0.3168961789E-02       1    7    1         0.1250521567E-03      0.2055119687E-02
          0                 3           2             1    1     1      -0.2707905762E-03       1    7    1        -0.1125490770E-04      0.1855714041E-03
          0                 4           1             1    1     1       0.2057234000E-04       1    1    1         0.9015152962E-06      0.1530609768E-04
          0                 5           1             1    1     1      -0.1364916144E-05       1    1    1        -0.6337567271E-07      0.1122752688E-05
          0                 6           1             1    1     1       0.7796808440E-07       1    4    1        -0.5046970841E-08      0.7158540491E-07

    ------------------------------------------------
       NWT REQUIRED            6 OUTER ITERATIONS 
       AND A TOTAL OF          9 INNER ITERATIONS.
    ------------------------------------------------

 NO OUTPUT CONTROL FOR STRESS PERIOD   37   TIME STEP   19
 
 WELLS WITH REDUCED PUMPING FOR STRESS PERIOD    37 TIME STEP    19
   LAY   ROW   COL         APPL.Q          ACT.Q        GW-HEAD       CELL-BOT
     1     3    50  -0.679985E+00  -0.344306E+00   0.564737E+01   0.000000E+00
     1     5    55  -0.679985E+00  -0.264923E+00   0.472702E+01   0.000000E+00
 
 
 SOLVING FOR HEAD 
                                                   Max.-Head-Change                         Max.-Flux-Residual
  Residual-Control   Outer-Iter.   Inner-Iter.     Column Row Layer    Maximum-Head-Change  Column Row Layer    Maximum-Flux-Residual          L2-NORM 
          0                 1           2             1    1     1      -0.3672776694E-01       3    5    1        -0.1251527126E-02      0.2112413317E-01
          0                 2           2             1    1     1       0.3484467283E-02       3    3    1         0.1251493138E-03      0.2051611701E-02
          0                 3           2             1    1     1      -0.2972011982E-03       3    5    1        -0.1126381823E-04      0.1852642547E-03
          0                 4           1             1    1     1       0.2252657356E-04       3    3    1         0.9022273346E-06      0.1529039920E-04
          0                 5           1             1    1     1      -0.1487937654E-05      30    4    1         0.6395650409E-07      0.1121689770E-05
          0                 6           1             1    1     1       0.8455313205E-07      30    4    1        -0.5128624636E-08      0.7157051644E-07

    ------------------------------------------------
       NWT REQUIRED            6 OUTER ITERATIONS 
       AND A TOTAL OF          9 INNER ITERATIONS.
    ------------------------------------------------

 NO OUTPUT CONTROL FOR STRESS PERIOD   37   TIME STEP   20
 
 WELLS WITH REDUCED PUMPING FOR STRESS PERIOD    37 TIME STEP    20
   LAY   ROW   COL         APPL.Q          ACT.Q        GW-HEAD       CELL-BOT
     1     3    50  -0.679980E+00  -0.343605E+00   0.563970E+01   0.000000E+00
     1     5    55  -0.679980E+00  -0.264428E+00   0.472154E+01   0.000000E+00
 
 
 SOLVING FOR HEAD 
                                                   Max.-Head-Change                         Max.-Flux-Residual
  Residual-Control   Outer-Iter.   Inner-Iter.     Column Row Layer    Maximum-Head-Change  Column Row Layer    Maximum-Flux-Residual          L2-NORM 
          0                 1           2             1    1     1      -0.4038982307E-01       1    5    1        -0.1253995271E-02      0.2108784379E-01
          0                 2           2             1    1     1       0.3826803048E-02       1    3    1         0.1253947990E-03      0.2048280427E-02
          0                 3           2             1    1     1      -0.3258721201E-03       1    5    1        -0.1128595618E-04      0.1849812072E-03
          0                 4           1             1    1     1       0.2464747475E-04       1    5    1         0.9040000215E-06      0.1527669029E-04
          0                 5           1             1    1     1      -0.1620136657E-05       1    3    1        -0.6355036675E-07      0.1120222000E-05
          0                 6           1             1    1     1       0.9153731514E-07       2    4    1        -0.5198202757E-08      0.7149066800E-07

    ------------------------------------------------
       NWT REQUIRED            6 OUTER ITERATIONS 
       AND A TOTAL OF          9 INNER ITERATIONS.
    ------------------------------------------------

 NO OUTPUT CONTROL FOR STRESS PERIOD   37   TIME STEP   21
 
 WELLS WITH REDUCED PUMPING FOR STRESS PERIOD    37 TIME STEP    21
   LAY   ROW   COL         APPL.Q          ACT.Q        GW-HEAD       CELL-BOT
     1     3    50  -0.680000E+00  -0.342914E+00   0.563199E+01   0.000000E+00
     1     5    55  -0.680000E+00  -0.263940E+00   0.471601E+01   0.000000E+00
 
 
 SOLVING FOR HEAD 
                                                   Max.-Head-Change                         Max.-Flux-Residual
  Residual-Control   Outer-Iter.   Inner-Iter.     Column Row Layer    Maximum-Head-Change  Column Row Layer    Maximum-Flux-Residual          L2-NORM 
          0                 1           2             1    1     1      -0.4439201681E-01       1    5    1        -0.1252392067E-02      0.2105250721E-01
          0                 2           2             1    1     1       0.4200349719E-02       1    3    1         0.1252342862E-03      0.2044849431E-02
          0                 3           2             1    1     1      -0.3570962316E-03       1    5    1        -0.1127154767E-04      0.1846732862E-03
          0                 4           1             1    1     1       0.2694986194E-04       1    3    1         0.9028453718E-06      0.1525964110E-04
          0                 5           1             1    1     1      -0.1761295392E-05      32    4    1         0.6397716668E-07      0.1117803256E-05
          0                 6           1             1    1     1       0.9883309690E-07       7    4    1        -0.5272895010E-08      0.7130356448E-07

    ------------------------------------------------
       NWT REQUIRED            6 OUTER ITERATIONS 
       AND A TOTAL OF          9 INNER ITERATIONS.
    ------------------------------------------------

 NO OUTPUT CONTROL FOR STRESS PERIOD   37   TIME STEP   22
 
 WELLS WITH REDUCED PUMPING FOR STRESS PERIOD    37 TIME STEP    22
   LAY   ROW   COL         APPL.Q          ACT.Q        GW-HEAD       CELL-BOT
     1     3    50  -0.679995E+00  -0.342215E+00   0.562435E+01   0.000000E+00
     1     5    55  -0.679995E+00  -0.263443E+00   0.471050E+01   0.000000E+00
 
 
 SOLVING FOR HEAD 
                                                   Max.-Head-Change                         Max.-Flux-Residual
  Residual-Control   Outer-Iter.   Inner-Iter.     Column Row Layer    Maximum-Head-Change  Column Row Layer    Maximum-Flux-Residual          L2-NORM 
          0                 1           2             1    1     1      -0.4878202314E-01       1    5    1        -0.1251144525E-02      0.2101972378E-01
          0                 2           2             1    1     1       0.4609786931E-02       1    3    1         0.1251091666E-03      0.2041598896E-02
          0                 3           2             1    1     1      -0.3912862814E-03       1    3    1        -0.1126032971E-04      0.1843718599E-03
          0                 4           1             1    1     1       0.2946511597E-04       1    3    1         0.9019461942E-06      0.1524137672E-04
          0                 5           1             3    1     1      -0.1912944825E-05      30    4    1         0.6525549701E-07      0.1114366762E-05
          0                 6           1             1    1     1       0.1064506782E-06       7    4    1        -0.5348919530E-08      0.7099172323E-07

    ------------------------------------------------
       NWT REQUIRED            6 OUTER ITERATIONS 
       AND A TOTAL OF          9 INNER ITERATIONS.
    ------------------------------------------------

 NO OUTPUT CONTROL FOR STRESS PERIOD   37   TIME STEP   23
 
 WELLS WITH REDUCED PUMPING FOR STRESS PERIOD    37 TIME STEP    23
   LAY   ROW   COL         APPL.Q          ACT.Q        GW-HEAD       CELL-BOT
     1     3    50  -0.680012E+00  -0.341518E+00   0.561660E+01   0.000000E+00
     1     5    55  -0.680012E+00  -0.262944E+00   0.470487E+01   0.000000E+00
 
 
 SOLVING FOR HEAD 
                                                   Max.-Head-Change                         Max.-Flux-Residual
  Residual-Control   Outer-Iter.   Inner-Iter.     Column Row Layer    Maximum-Head-Change  Column Row Layer    Maximum-Flux-Residual          L2-NORM 
          0                 1           2             1    1     1      -0.5360111689E-01       1    5    1        -0.1249954235E-02      0.2098712653E-01
          0                 2           2             1    1     1       0.5058984321E-02       1    1    1         0.1249910840E-03      0.2038450373E-02
          0                 3           2             1    1     1      -0.4287671445E-03       1    5    1        -0.1124962226E-04      0.1840783367E-03
          0                 4           1             1    1     1       0.3221604463E-04       1    3    1         0.9010878621E-06      0.1522302965E-04
          0                 5           1             3    1     1      -0.2075369440E-05      30    4    1         0.6606907910E-07      0.1109861302E-05
          0                 6           1             3    1     1       0.1143332745E-06       7    4    1        -0.5426628036E-08      0.7054555928E-07

    ------------------------------------------------
       NWT REQUIRED            6 OUTER ITERATIONS 
       AND A TOTAL OF          9 INNER ITERATIONS.
    ------------------------------------------------

 NO OUTPUT CONTROL FOR STRESS PERIOD   37   TIME STEP   24
 
 WELLS WITH REDUCED PUMPING FOR STRESS PERIOD    37 TIME STEP    24
   LAY   ROW   COL         APPL.Q          ACT.Q        GW-HEAD       CELL-BOT
     1     3    50  -0.679997E+00  -0.340804E+00   0.560884E+01   0.000000E+00
     1     5    55  -0.679997E+00  -0.262428E+00   0.469919E+01   0.000000E+00
 
 
 SOLVING FOR HEAD 
                                                   Max.-Head-Change                         Max.-Flux-Residual
  Residual-Control   Outer-Iter.   Inner-Iter.     Column Row Layer    Maximum-Head-Change  Column Row Layer    Maximum-Flux-Residual          L2-NORM 
          0                 1           3             1    1     1      -0.5889137647E-01       1    7    1        -0.1248705042E-02      0.2095450983E-01
          0                 2           2             1    1     1       0.5552036150E-02       1    7    1         0.1248660386E-03      0.2035271421E-02
          0                 3           2             1    1     1      -0.4698796380E-03       1    7    1        -0.1123839361E-04      0.1837806718E-03
          0                 4           1             1    1     1       0.3522744356E-04       1    1    1         0.9001891428E-06      0.1520349928E-04
          0                 5           1             3    1     1      -0.2248939239E-05      30    4    1         0.6686285303E-07      0.1104128736E-05
          0                 6           1             3    1     1       0.1224811097E-06       9    4    1        -0.5473015818E-08      0.6995729905E-07

    ------------------------------------------------
       NWT REQUIRED            6 OUTER ITERATIONS 
       AND A TOTAL OF         10 INNER ITERATIONS.
    ------------------------------------------------

 NO OUTPUT CONTROL FOR STRESS PERIOD   37   TIME STEP   25
 
 WELLS WITH REDUCED PUMPING FOR STRESS PERIOD    37 TIME STEP    25
   LAY   ROW   COL         APPL.Q          ACT.Q        GW-HEAD       CELL-BOT
     1     3    50  -0.680007E+00  -0.340082E+00   0.560086E+01   0.000000E+00
     1     5    55  -0.680007E+00  -0.261903E+00   0.469328E+01   0.000000E+00
 
 
 SOLVING FOR HEAD 
                                                   Max.-Head-Change                         Max.-Flux-Residual
  Residual-Control   Outer-Iter.   Inner-Iter.     Column Row Layer    Maximum-Head-Change  Column Row Layer    Maximum-Flux-Residual          L2-NORM 
          0                 1           3             1    1     1      -0.6469755415E-01       1    7    1        -0.1247345972E-02      0.2092036501E-01
          0                 2           2             1    1     1       0.6092851147E-02       1    7    1         0.1247295619E-03      0.2031962874E-02
          0                 3           2             1    1     1      -0.5149452773E-03       1    7    1        -0.1122616505E-04      0.1834680983E-03
          0                 4           1             1    1     1       0.3851747874E-04       1    7    1         0.8992088585E-06      0.1518182756E-04
          0                 5           1             3    1     1      -0.2429548345E-05       9    4    1         0.6631988114E-07      0.1097099077E-05
          0                 6           1             1    1     1       0.1303931438E-06       9    4    1        -0.5577209805E-08      0.6923234221E-07

    ------------------------------------------------
       NWT REQUIRED            6 OUTER ITERATIONS 
       AND A TOTAL OF         10 INNER ITERATIONS.
    ------------------------------------------------

 NO OUTPUT CONTROL FOR STRESS PERIOD   37   TIME STEP   26
 
 WELLS WITH REDUCED PUMPING FOR STRESS PERIOD    37 TIME STEP    26
   LAY   ROW   COL         APPL.Q          ACT.Q        GW-HEAD       CELL-BOT
     1     3    50  -0.680004E+00  -0.339336E+00   0.559269E+01   0.000000E+00
     1     5    55  -0.680004E+00  -0.261354E+00   0.468718E+01   0.000000E+00
 
 
 SOLVING FOR HEAD 
                                                   Max.-Head-Change                         Max.-Flux-Residual
  Residual-Control   Outer-Iter.   Inner-Iter.     Column Row Layer    Maximum-Head-Change  Column Row Layer    Maximum-Flux-Residual          L2-NORM 
          0                 1           3             1    1     1      -0.7106867071E-01       1    7    1        -0.1245863512E-02      0.2088345048E-01
          0                 2           2             1    1     1       0.6686087029E-02       1    7    1         0.1245806789E-03      0.2028424808E-02
          0                 3           2             1    1     1      -0.5643466672E-03       1    7    1        -0.1121282554E-04      0.1831428685E-03
          0                 4           1             1    1     1       0.4211199740E-04       1    1    1         0.8981395041E-06      0.1515947562E-04
          0                 5           1             3    1     1      -0.2617562493E-05       9    4    1         0.6778547856E-07      0.1088217714E-05
          0                 6           1             1    1     1       0.1379629914E-06       9    4    1        -0.5686086268E-08      0.6831097577E-07

    ------------------------------------------------
       NWT REQUIRED            6 OUTER ITERATIONS 
       AND A TOTAL OF         10 INNER ITERATIONS.
    ------------------------------------------------

 NO OUTPUT CONTROL FOR STRESS PERIOD   37   TIME STEP   27
 
 WELLS WITH REDUCED PUMPING FOR STRESS PERIOD    37 TIME STEP    27
   LAY   ROW   COL         APPL.Q          ACT.Q        GW-HEAD       CELL-BOT
     1     3    50  -0.680001E+00  -0.338565E+00   0.558423E+01   0.000000E+00
     1     5    55  -0.680001E+00  -0.260779E+00   0.468077E+01   0.000000E+00
 
 
 SOLVING FOR HEAD 
                                                   Max.-Head-Change                         Max.-Flux-Residual
  Residual-Control   Outer-Iter.   Inner-Iter.     Column Row Layer    Maximum-Head-Change  Column Row Layer    Maximum-Flux-Residual          L2-NORM 
          0                 1           3             1    1     1      -0.7805796852E-01       1    7    1        -0.1244244111E-02      0.2084298327E-01
          0                 2           2             1    1     1       0.7336690847E-02       1    7    1         0.1244180264E-03      0.2024501679E-02
          0                 3           2             1    1     1      -0.6184888960E-03       1    7    1        -0.1119825292E-04      0.1827804167E-03
          0                 4           1             1    1     1       0.4603615296E-04       1    7    1         0.8969712919E-06      0.1513350647E-04
          0                 5           1             3    1     1      -0.2810032264E-05       9    4    1         0.6946503106E-07      0.1077251477E-05
          0                 6           1             1    1     1       0.1448289752E-06       9    4    1        -0.5802437641E-08      0.6720401786E-07

    ------------------------------------------------
       NWT REQUIRED            6 OUTER ITERATIONS 
       AND A TOTAL OF         10 INNER ITERATIONS.
    ------------------------------------------------

 NO OUTPUT CONTROL FOR STRESS PERIOD   37   TIME STEP   28
 
 WELLS WITH REDUCED PUMPING FOR STRESS PERIOD    37 TIME STEP    28
   LAY   ROW   COL         APPL.Q          ACT.Q        GW-HEAD       CELL-BOT
     1     3    50  -0.679988E+00  -0.337759E+00   0.557546E+01   0.000000E+00
     1     5    55  -0.679988E+00  -0.260170E+00   0.467404E+01   0.000000E+00
 
 
 SOLVING FOR HEAD 
                                                   Max.-Head-Change                         Max.-Flux-Residual
  Residual-Control   Outer-Iter.   Inner-Iter.     Column Row Layer    Maximum-Head-Change  Column Row Layer    Maximum-Flux-Residual          L2-NORM 
          0                 1           3             1    1     1      -0.8572335353E-01       1    7    1        -0.1242472959E-02      0.2079984891E-01
          0                 2           2             1    1     1       0.8050038433E-02       1    7    1         0.1242401143E-03      0.2020254318E-02
          0                 3           2             1    1     1      -0.6778075036E-03       1    7    1        -0.1118231365E-04      0.1823625090E-03
          0                 4           1             1    1     1       0.5031525695E-04       4    3    1         0.8959718159E-06      0.1510061880E-04
          0                 5           1             3    1     1      -0.3002133616E-05       9    4    1         0.7147441750E-07      0.1063683732E-05
          0                 6           1             1    1     1       0.1505173273E-06       9    4    1        -0.5933415537E-08      0.6590530397E-07

    ------------------------------------------------
       NWT REQUIRED            6 OUTER ITERATIONS 
       AND A TOTAL OF         10 INNER ITERATIONS.
    ------------------------------------------------

 NO OUTPUT CONTROL FOR STRESS PERIOD   37   TIME STEP   29
 
 WELLS WITH REDUCED PUMPING FOR STRESS PERIOD    37 TIME STEP    29
   LAY   ROW   COL         APPL.Q          ACT.Q        GW-HEAD       CELL-BOT
     1     3    50  -0.680007E+00  -0.336922E+00   0.556617E+01   0.000000E+00
     1     5    55  -0.680007E+00  -0.259528E+00   0.466679E+01   0.000000E+00
 
 
 SOLVING FOR HEAD 
                                                   Max.-Head-Change                         Max.-Flux-Residual
  Residual-Control   Outer-Iter.   Inner-Iter.     Column Row Layer    Maximum-Head-Change  Column Row Layer    Maximum-Flux-Residual          L2-NORM 
          0                 1           3             1    1     1      -0.9412771550E-01       1    7    1        -0.1240534167E-02      0.2075286014E-01
          0                 2           2             1    1     1       0.8831962889E-02       1    7    1         0.1240453434E-03      0.2015674175E-02
          0                 3           2             1    1     1      -0.7427700058E-03       3    2    1        -0.1116559658E-04      0.1819306407E-03
          0                 4           1             1    1     1       0.5497480350E-04       4    3    1         0.8956542068E-06      0.1506846634E-04
          0                 5           1             3    1     1      -0.3187396978E-05       9    4    1         0.7389789403E-07      0.1048569155E-05
          0                 6           1             1    1     1       0.1544529275E-06       9    4    1        -0.6079957870E-08      0.6456340777E-07

    ------------------------------------------------
       NWT REQUIRED            6 OUTER ITERATIONS 
       AND A TOTAL OF         10 INNER ITERATIONS.
    ------------------------------------------------

 NO OUTPUT CONTROL FOR STRESS PERIOD   37   TIME STEP   30
 
 WELLS WITH REDUCED PUMPING FOR STRESS PERIOD    37 TIME STEP    30
   LAY   ROW   COL         APPL.Q          ACT.Q        GW-HEAD       CELL-BOT
     1     3    50  -0.680056E+00  -0.336041E+00   0.555622E+01   0.000000E+00
     1     5    55  -0.680056E+00  -0.258845E+00   0.465895E+01   0.000000E+00
 



 STREAM LISTING     PERIOD     37   STEP       30

 LAYER ROW COL. STREAM  RCH.   FLOW INTO    STREAM     FLOW OUT OF   OVRLND.    DIRECT     STREAM      STREAM      STREAM     STREAM  STREAMBED   FLOW TO   CHNG. UNSAT. 
                SEG.NO.  NO.   STRM. RCH.    LOSS       STRM. RCH.   RUNOFF     PRECIP       ET         HEAD        DEPTH      WIDTH  CONDCTNC.   WAT. TAB.

   1    4    1     1     1    6.2000E-02  1.9641E-04   6.1804E-02  0.000E+00  0.000E+00  0.000E+00  1.40090E+02  2.401E-01  1.738E+00  2.654E-04  1.702E-04  2.623E-05
   1    4    2     1     2    6.1804E-02  1.9610E-04   6.1607E-02  0.000E+00  0.000E+00  0.000E+00  1.39790E+02  2.399E-01  1.736E+00  2.651E-04  1.698E-04  2.625E-05
   1    4    3     1     3    6.1607E-02  1.9579E-04   6.1412E-02  0.000E+00  0.000E+00  0.000E+00  1.39490E+02  2.396E-01  1.734E+00  2.647E-04  1.695E-04  2.626E-05
   1    4    4     1     4    6.1412E-02  1.9548E-04   6.1216E-02  0.000E+00  0.000E+00  0.000E+00  1.39189E+02  2.393E-01  1.732E+00  2.644E-04  1.692E-04  2.625E-05
   1    4    5     1     5    6.1216E-02  1.9518E-04   6.1021E-02  0.000E+00  0.000E+00  0.000E+00  1.38889E+02  2.390E-01  1.730E+00  2.641E-04  1.689E-04  2.623E-05
   1    4    6     1     6    6.1021E-02  1.9487E-04   6.0826E-02  0.000E+00  0.000E+00  0.000E+00  1.38589E+02  2.387E-01  1.728E+00  2.638E-04  1.687E-04  2.619E-05
   1    4    7     1     7    6.0826E-02  1.9456E-04   6.0632E-02  0.000E+00  0.000E+00  0.000E+00  1.38288E+02  2.384E-01  1.726E+00  2.635E-04  1.684E-04  2.614E-05
   1    4    8     1     8    6.0632E-02  1.9425E-04   6.0437E-02  0.000E+00  0.000E+00  0.000E+00  1.37988E+02  2.381E-01  1.724E+00  2.632E-04  1.682E-04  2.607E-05
   1    4    9     1     9    6.0437E-02  1.9394E-04   6.0243E-02  0.000E+00  0.000E+00  0.000E+00  1.37688E+02  2.379E-01  1.722E+00  2.628E-04  1.679E-04  2.599E-05
   1    4   10     1    10    6.0243E-02  1.9363E-04   6.0050E-02  0.000E+00  0.000E+00  0.000E+00  1.37388E+02  2.376E-01  1.720E+00  2.625E-04  1.677E-04  2.589E-05
   1    4   11     1    11    6.0050E-02  1.9332E-04   5.9856E-02  0.000E+00  0.000E+00  0.000E+00  1.37087E+02  2.373E-01  1.717E+00  2.622E-04  1.675E-04  2.578E-05
   1    4   12     1    12    5.9856E-02  1.9301E-04   5.9663E-02  0.000E+00  0.000E+00  0.000E+00  1.36787E+02  2.370E-01  1.715E+00  2.619E-04  1.673E-04  2.565E-05
   1    4   13     1    13    5.9663E-02  1.9270E-04   5.9471E-02  0.000E+00  0.000E+00  0.000E+00  1.36487E+02  2.367E-01  1.713E+00  2.616E-04  1.672E-04  2.550E-05
   1    4   14     1    14    5.9471E-02  1.9239E-04   5.9278E-02  0.000E+00  0.000E+00  0.000E+00  1.36186E+02  2.364E-01  1.711E+00  2.613E-04  1.670E-04  2.534E-05
   1    4   15     1    15    5.9278E-02  1.9208E-04   5.9086E-02  0.000E+00  0.000E+00  0.000E+00  1.35886E+02  2.361E-01  1.709E+00  2.609E-04  1.669E-04  2.517E-05
   1    4   16     1    16    5.9086E-02  1.9178E-04   5.8895E-02  0.000E+00  0.000E+00  0.000E+00  1.35586E+02  2.358E-01  1.707E+00  2.606E-04  1.668E-04  2.497E-05
   1    4   17     1    17    5.8895E-02  1.9147E-04   5.8703E-02  0.000E+00  0.000E+00  0.000E+00  1.35286E+02  2.356E-01  1.705E+00  2.603E-04  1.667E-04  2.476E-05
   1    4   18     1    18    5.8703E-02  1.9116E-04   5.8512E-02  0.000E+00  0.000E+00  0.000E+00  1.34985E+02  2.353E-01  1.703E+00  2.600E-04  1.666E-04  2.453E-05
   1    4   19     1    19    5.8512E-02  1.9085E-04   5.8321E-02  0.000E+00  0.000E+00  0.000E+00  1.34685E+02  2.350E-01  1.701E+00  2.597E-04  1.666E-04  2.428E-05
   1    4   20     1    20    5.8321E-02  1.9054E-04   5.8130E-02  0.000E+00  0.000E+00  0.000E+00  1.34385E+02  2.347E-01  1.699E+00  2.593E-04  1.665E-04  2.402E-05
   1    4   21     1    21    5.8130E-02  1.9023E-04   5.7940E-02  0.000E+00  0.000E+00  0.000E+00  1.34084E+02  2.344E-01  1.697E+00  2.590E-04  1.665E-04  2.373E-05
   1    4   22     1    22    5.7940E-02  1.8992E-04   5.7750E-02  0.000E+00  0.000E+00  0.000E+00  1.33784E+02  2.341E-01  1.695E+00  2.587E-04  1.665E-04  2.341E-05
   1    4   23     1    23    5.7750E-02  1.8962E-04   5.7561E-02  0.000E+00  0.000E+00  0.000E+00  1.33484E+02  2.338E-01  1.693E+00  2.584E-04  1.665E-04  2.308E-05
   1    4   24     1    24    5.7561E-02  1.8931E-04   5.7371E-02  0.000E+00  0.000E+00  0.000E+00  1.33184E+02  2.335E-01  1.690E+00  2.581E-04  1.666E-04  2.272E-05
   1    4   25     1    25    5.7371E-02  1.8900E-04   5.7182E-02  0.000E+00  0.000E+00  0.000E+00  1.32883E+02  2.333E-01  1.688E+00  2.578E-04  1.667E-04  2.233E-05
   1    4   26     1    26    5.7182E-02  1.8869E-04   5.6994E-02  0.000E+00  0.000E+00  0.000E+00  1.32583E+02  2.330E-01  1.686E+00  2.574E-04  1.668E-04  2.191E-05
   1    4   27     1    27    5.6994E-02  1.8838E-04   5.6805E-02  0.000E+00  0.000E+00  0.000E+00  1.32283E+02  2.327E-01  1.684E+00  2.571E-04  1.669E-04  2.146E-05
   1    4   28     1    28    5.6805E-02  1.8808E-04   5.6617E-02  0.000E+00  0.000E+00  0.000E+00  1.31982E+02  2.324E-01  1.682E+00  2.568E-04  1.671E-04  2.098E-05
   1    4   29     1    29    5.6617E-02  1.8777E-04   5.6429E-02  0.000E+00  0.000E+00  0.000E+00  1.31682E+02  2.321E-01  1.680E+00  2.565E-04  1.674E-04  2.036E-05
   1    4   30     1    30    5.6429E-02  1.8746E-04   5.6242E-02  0.000E+00  0.000E+00  0.000E+00  1.31382E+02  2.318E-01  1.678E+00  2.562E-04  1.678E-04  1.967E-05
   1    4   31     1    31    5.6242E-02  1.8715E-04   5.6055E-02  0.000E+00  0.000E+00  0.000E+00  1.31082E+02  2.315E-01  1.676E+00  2.558E-04  1.797E-04  7.449E-06
   1    4   32     1    32    5.6055E-02  1.8684E-04   5.5868E-02  0.000E+00  0.000E+00  0.000E+00  1.30781E+02  2.312E-01  1.674E+00  2.555E-04  1.958E-04 -9.015E-06
   1    4   33     1    33    5.5868E-02  1.8654E-04   5.5681E-02  0.000E+00  0.000E+00  0.000E+00  1.30481E+02  2.309E-01  1.672E+00  2.552E-04  1.965E-04 -9.965E-06
   1    4   34     1    34    5.5681E-02  1.8623E-04   5.5495E-02  0.000E+00  0.000E+00  0.000E+00  1.30181E+02  2.307E-01  1.669E+00  2.549E-04  1.972E-04 -1.096E-05
   1    4   35     1    35    5.5495E-02  1.8592E-04   5.5309E-02  0.000E+00  0.000E+00  0.000E+00  1.29880E+02  2.304E-01  1.667E+00  2.546E-04  1.979E-04 -1.201E-05
   1    4   36     1    36    5.5309E-02  1.8561E-04   5.5124E-02  0.000E+00  0.000E+00  0.000E+00  1.29580E+02  2.301E-01  1.665E+00  2.542E-04  2.188E-04 -3.323E-05
   1    4   37     1    37    5.5124E-02  1.8530E-04   5.4938E-02  0.000E+00  0.000E+00  0.000E+00  1.29280E+02  2.298E-01  1.663E+00  2.539E-04  2.270E-04 -4.173E-05
   1    4   38     1    38    5.4938E-02  1.8500E-04   5.4753E-02  0.000E+00  0.000E+00  0.000E+00  1.28979E+02  2.295E-01  1.661E+00  2.536E-04  2.281E-04 -4.313E-05
   1    4   39     1    39    5.4753E-02  1.8469E-04   5.4569E-02  0.000E+00  0.000E+00  0.000E+00  1.28679E+02  2.292E-01  1.659E+00  2.533E-04  2.399E-04 -5.526E-05
   1    4   40     1    40    5.4569E-02  1.8438E-04   5.4384E-02  0.000E+00  0.000E+00  0.000E+00  1.28379E+02  2.289E-01  1.657E+00  2.530E-04  2.572E-04 -7.284E-05
   1    4   41     1    41    5.4384E-02  1.8407E-04   5.4200E-02  0.000E+00  0.000E+00  0.000E+00  1.28079E+02  2.286E-01  1.655E+00  2.526E-04  2.586E-04 -7.451E-05
   1    4   42     1    42    5.4200E-02  1.8377E-04   5.4017E-02  0.000E+00  0.000E+00  0.000E+00  1.27778E+02  2.283E-01  1.653E+00  2.523E-04  3.015E-04 -1.178E-04
   1    4   43     1    43    5.4017E-02  1.8346E-04   5.3833E-02  0.000E+00  0.000E+00  0.000E+00  1.27478E+02  2.280E-01  1.651E+00  2.520E-04  3.095E-04 -1.261E-04
   1    4   44     1    44    5.3833E-02  1.8315E-04   5.3650E-02  0.000E+00  0.000E+00  0.000E+00  1.27178E+02  2.278E-01  1.648E+00  2.517E-04  3.262E-04 -1.431E-04
   1    4   45     1    45    5.3650E-02  1.8284E-04   5.3467E-02  0.000E+00  0.000E+00  0.000E+00  1.26877E+02  2.275E-01  1.646E+00  2.513E-04  3.222E-04 -1.394E-04
   1    4   46     1    46    5.3467E-02  1.8254E-04   5.3285E-02  0.000E+00  0.000E+00  0.000E+00  1.26577E+02  2.272E-01  1.644E+00  2.510E-04  3.410E-04 -1.585E-04
   1    4   47     1    47    5.3285E-02  1.8223E-04   5.3102E-02  0.000E+00  0.000E+00  0.000E+00  1.26277E+02  2.269E-01  1.642E+00  2.507E-04  3.630E-04 -1.808E-04
   1    4   48     1    48    5.3102E-02  1.8192E-04   5.2920E-02  0.000E+00  0.000E+00  0.000E+00  1.25977E+02  2.266E-01  1.640E+00  2.504E-04  4.139E-04 -2.321E-04
   1    4   49     1    49    5.2920E-02  1.8162E-04   5.2739E-02  0.000E+00  0.000E+00  0.000E+00  1.25676E+02  2.263E-01  1.638E+00  2.501E-04  4.178E-04 -2.363E-04
   1    4   50     1    50    5.2739E-02  1.8131E-04   5.2557E-02  0.000E+00  0.000E+00  0.000E+00  1.25376E+02  2.260E-01  1.636E+00  2.497E-04  4.243E-04 -2.431E-04
   1    4   51     1    51    5.2557E-02  1.8100E-04   5.2376E-02  0.000E+00  0.000E+00  0.000E+00  1.25076E+02  2.257E-01  1.634E+00  2.494E-04  4.219E-04 -2.410E-04
   1    4   52     1    52    5.2376E-02  1.8069E-04   5.2196E-02  0.000E+00  0.000E+00  0.000E+00  1.24775E+02  2.254E-01  1.632E+00  2.491E-04  4.220E-04 -2.413E-04
   1    4   53     1    53    5.2196E-02  1.8039E-04   5.2015E-02  0.000E+00  0.000E+00  0.000E+00  1.24475E+02  2.251E-01  1.629E+00  2.488E-04  4.226E-04 -2.423E-04
   1    4   54     1    54    5.2015E-02  1.8008E-04   5.1835E-02  0.000E+00  0.000E+00  0.000E+00  1.24175E+02  2.248E-01  1.627E+00  2.484E-04  4.232E-04 -2.432E-04
   1    4   55     1    55    5.1835E-02  1.7977E-04   5.1656E-02  0.000E+00  0.000E+00  0.000E+00  1.23875E+02  2.245E-01  1.625E+00  2.481E-04  4.250E-04 -2.453E-04
   1    4   56     1    56    5.1656E-02  1.7947E-04   5.1476E-02  0.000E+00  0.000E+00  0.000E+00  1.23574E+02  2.242E-01  1.623E+00  2.478E-04  4.186E-04 -2.392E-04
   1    4   57     1    57    5.1476E-02  1.7916E-04   5.1297E-02  0.000E+00  0.000E+00  0.000E+00  1.23274E+02  2.240E-01  1.621E+00  2.475E-04  4.145E-04 -2.354E-04
   1    4   58     1    58    5.1297E-02  1.7885E-04   5.1118E-02  0.000E+00  0.000E+00  0.000E+00  1.22974E+02  2.237E-01  1.619E+00  2.472E-04  3.711E-04 -1.923E-04
   1    4   59     1    59    5.1118E-02  1.7855E-04   5.0939E-02  0.000E+00  0.000E+00  0.000E+00  1.22673E+02  2.234E-01  1.617E+00  2.468E-04  3.511E-04 -1.726E-04
   1    4   60     1    60    5.0939E-02  1.7824E-04   5.0761E-02  0.000E+00  0.000E+00  0.000E+00  1.22373E+02  2.231E-01  1.615E+00  2.465E-04  3.354E-04 -1.572E-04
   1    4   61     1    61    5.0761E-02  1.7793E-04   5.0583E-02  0.000E+00  0.000E+00  0.000E+00  1.22073E+02  2.228E-01  1.613E+00  2.462E-04  3.154E-04 -1.375E-04
   1    4   62     1    62    5.0583E-02  1.7763E-04   5.0406E-02  0.000E+00  0.000E+00  0.000E+00  1.21772E+02  2.225E-01  1.610E+00  2.459E-04  3.017E-04 -1.241E-04
   1    4   63     1    63    5.0406E-02  1.7732E-04   5.0228E-02  0.000E+00  0.000E+00  0.000E+00  1.21472E+02  2.222E-01  1.608E+00  2.455E-04  3.056E-04 -1.283E-04
   1    4   64     1    64    5.0228E-02  1.7701E-04   5.0051E-02  0.000E+00  0.000E+00  0.000E+00  1.21172E+02  2.219E-01  1.606E+00  2.452E-04  2.946E-04 -1.176E-04
   1    4   65     1    65    5.0051E-02  1.7671E-04   4.9875E-02  0.000E+00  0.000E+00  0.000E+00  1.20872E+02  2.216E-01  1.604E+00  2.449E-04  2.547E-04 -7.798E-05
   1    4   66     1    66    4.9875E-02  1.7640E-04   4.9698E-02  0.000E+00  0.000E+00  0.000E+00  1.20571E+02  2.213E-01  1.602E+00  2.446E-04  2.535E-04 -7.712E-05
   1    4   67     1    67    4.9698E-02  1.7610E-04   4.9522E-02  0.000E+00  0.000E+00  0.000E+00  1.20271E+02  2.210E-01  1.600E+00  2.442E-04  2.372E-04 -6.111E-05
   1    4   68     1    68    4.9522E-02  1.7579E-04   4.9346E-02  0.000E+00  0.000E+00  0.000E+00  1.19971E+02  2.207E-01  1.598E+00  2.439E-04  2.242E-04 -4.847E-05
   1    4   69     1    69    4.9346E-02  1.7548E-04   4.9171E-02  0.000E+00  0.000E+00  0.000E+00  1.19670E+02  2.204E-01  1.596E+00  2.436E-04  2.235E-04 -4.800E-05
   1    4   70     1    70    4.9171E-02  1.7518E-04   4.8996E-02  0.000E+00  0.000E+00  0.000E+00  1.19370E+02  2.201E-01  1.593E+00  2.433E-04  2.196E-04 -4.440E-05
   1    4   71     1    71    4.8996E-02  1.7487E-04   4.8821E-02  0.000E+00  0.000E+00  0.000E+00  1.19070E+02  2.198E-01  1.591E+00  2.429E-04  1.972E-04 -2.238E-05
   1    4   72     1    72    4.8821E-02  1.7457E-04   4.8646E-02  0.000E+00  0.000E+00  0.000E+00  1.18770E+02  2.195E-01  1.589E+00  2.426E-04  1.940E-04 -1.944E-05
   1    4   73     1    73    4.8646E-02  1.7426E-04   4.8472E-02  0.000E+00  0.000E+00  0.000E+00  1.18469E+02  2.193E-01  1.587E+00  2.423E-04  1.937E-04 -1.947E-05
   1    4   74     1    74    4.8472E-02  1.7395E-04   4.8298E-02  0.000E+00  0.000E+00  0.000E+00  1.18169E+02  2.190E-01  1.585E+00  2.420E-04  1.935E-04 -1.958E-05
   1    4   75     1    75    4.8298E-02  1.7365E-04   4.8124E-02  0.000E+00  0.000E+00  0.000E+00  1.17869E+02  2.187E-01  1.583E+00  2.416E-04  1.802E-04 -6.612E-06
   1    4   76     1    76    4.8124E-02  1.7334E-04   4.7951E-02  0.000E+00  0.000E+00  0.000E+00  1.17568E+02  2.184E-01  1.581E+00  2.413E-04  1.657E-04  7.647E-06
   1    4   77     1    77    4.7951E-02  1.7304E-04   4.7778E-02  0.000E+00  0.000E+00  0.000E+00  1.17268E+02  2.181E-01  1.578E+00  2.410E-04  1.658E-04  7.180E-06
   1    4   78     1    78    4.7778E-02  1.7273E-04   4.7605E-02  0.000E+00  0.000E+00  0.000E+00  1.16968E+02  2.178E-01  1.576E+00  2.406E-04  1.661E-04  6.657E-06
   1    4   79     1    79    4.7605E-02  1.7242E-04   4.7433E-02  0.000E+00  0.000E+00  0.000E+00  1.16667E+02  2.175E-01  1.574E+00  2.403E-04  1.664E-04  6.054E-06
   1    4   80     1    80    4.7433E-02  1.7212E-04   4.7261E-02  0.000E+00  0.000E+00  0.000E+00  1.16367E+02  2.172E-01  1.572E+00  2.400E-04  1.667E-04  5.367E-06
   1    4   81     1    81    4.7261E-02  1.7181E-04   4.7089E-02  0.000E+00  0.000E+00  0.000E+00  1.16067E+02  2.169E-01  1.570E+00  2.397E-04  1.672E-04  4.598E-06
   1    4   82     1    82    4.7089E-02  1.7151E-04   4.6917E-02  0.000E+00  0.000E+00  0.000E+00  1.15767E+02  2.166E-01  1.568E+00  2.393E-04  1.677E-04  3.745E-06
   1    4   83     1    83    4.6917E-02  1.7120E-04   4.6746E-02  0.000E+00  0.000E+00  0.000E+00  1.15466E+02  2.163E-01  1.566E+00  2.390E-04  1.684E-04  2.813E-06
   1    4   84     1    84    4.6746E-02  1.7090E-04   4.6575E-02  0.000E+00  0.000E+00  0.000E+00  1.15166E+02  2.160E-01  1.563E+00  2.387E-04  1.691E-04  1.801E-06
   1    4   85     1    85    4.6575E-02  1.7059E-04   4.6405E-02  0.000E+00  0.000E+00  0.000E+00  1.14866E+02  2.157E-01  1.561E+00  2.384E-04  1.699E-04  7.119E-07
   1    4   86     1    86    4.6405E-02  1.7028E-04   4.6234E-02  0.000E+00  0.000E+00  0.000E+00  1.14565E+02  2.154E-01  1.559E+00  2.380E-04  1.707E-04 -4.526E-07
   1    4   87     1    87    4.6234E-02  1.6998E-04   4.6064E-02  0.000E+00  0.000E+00  0.000E+00  1.14265E+02  2.151E-01  1.557E+00  2.377E-04  1.717E-04 -1.692E-06
   1    4   88     1    88    4.6064E-02  1.6967E-04   4.5895E-02  0.000E+00  0.000E+00  0.000E+00  1.13965E+02  2.148E-01  1.555E+00  2.374E-04  1.727E-04 -3.003E-06
   1    4   89     1    89    4.5895E-02  1.6937E-04   4.5725E-02  0.000E+00  0.000E+00  0.000E+00  1.13665E+02  2.145E-01  1.553E+00  2.370E-04  1.737E-04 -4.384E-06
   1    4   90     1    90    4.5725E-02  1.6906E-04   4.5556E-02  0.000E+00  0.000E+00  0.000E+00  1.13364E+02  2.142E-01  1.551E+00  2.367E-04  1.749E-04 -5.829E-06
   1    4   91     1    91    4.5556E-02  1.6876E-04   4.5388E-02  0.000E+00  0.000E+00  0.000E+00  1.13064E+02  2.139E-01  1.548E+00  2.364E-04  1.761E-04 -7.336E-06
   1    4   92     1    92    4.5388E-02  1.6845E-04   4.5219E-02  0.000E+00  0.000E+00  0.000E+00  1.12764E+02  2.136E-01  1.546E+00  2.361E-04  1.773E-04 -8.898E-06
   1    4   93     1    93    4.5219E-02  1.6815E-04   4.5051E-02  0.000E+00  0.000E+00  0.000E+00  1.12463E+02  2.133E-01  1.544E+00  2.357E-04  1.786E-04 -1.051E-05
   1    4   94     1    94    4.5051E-02  1.6784E-04   4.4883E-02  0.000E+00  0.000E+00  0.000E+00  1.12163E+02  2.130E-01  1.542E+00  2.354E-04  1.800E-04 -1.217E-05
   1    4   95     1    95    4.4883E-02  1.6754E-04   4.4716E-02  0.000E+00  0.000E+00  0.000E+00  1.11863E+02  2.127E-01  1.540E+00  2.351E-04  1.814E-04 -1.386E-05
   1    4   96     1    96    4.4716E-02  1.6723E-04   4.4548E-02  0.000E+00  0.000E+00  0.000E+00  1.11562E+02  2.124E-01  1.538E+00  2.347E-04  1.828E-04 -1.557E-05
   1    4   97     1    97    4.4548E-02  1.6693E-04   4.4381E-02  0.000E+00  0.000E+00  0.000E+00  1.11262E+02  2.121E-01  1.535E+00  2.344E-04  1.720E-04 -5.113E-06
   1    4   98     1    98    4.4381E-02  1.6662E-04   4.4215E-02  0.000E+00  0.000E+00  0.000E+00  1.10962E+02  2.118E-01  1.533E+00  2.341E-04  1.735E-04 -6.847E-06
   1    4   99     1    99    4.4215E-02  1.6632E-04   4.4049E-02  0.000E+00  0.000E+00  0.000E+00  1.10662E+02  2.115E-01  1.531E+00  2.337E-04  1.735E-04 -7.220E-06
   1    4  100     1   100    4.4049E-02  1.6601E-04   4.3883E-02  0.000E+00  0.000E+00  0.000E+00  1.10361E+02  2.112E-01  1.529E+00  2.334E-04  1.718E-04 -5.764E-06



1
  VOLUMETRIC BUDGET FOR UNSATURATED ZONE BENEATH STREAMS AT END OF TIME STEP    30 STRESS PERIOD  37
  ------------------------------------------------------------------------------------------------

    CUMULATIVE VOLUMES             L**3    RATES FOR THIS TIME STEP         L**3/T
    ------------------                     ------------------------


          STREAM LOSS =     30285852.0000            STREAM LOSS =        1.8117E-02
    CHANGE IN STORAGE =       901973.0625      CHANGE IN STORAGE =       -4.4248E-03
       RECHARGE TO GW =     29391002.0000         RECHARGE TO GW =        2.2540E-02

             TOTAL IN =     30285852.0000               TOTAL IN =        2.2542E-02

            TOTAL OUT =     30292976.0000              TOTAL OUT =        2.2540E-02

             IN - OUT =        -7124.0000               IN - OUT =        1.9018E-06

  PERCENT DISCREPANCY =           -0.01      PERCENT DISCREPANCY =             0.00



1
  VOLUMETRIC BUDGET FOR ENTIRE MODEL AT END OF TIME STEP   30, STRESS PERIOD  37
  ------------------------------------------------------------------------------

     CUMULATIVE VOLUMES      L**3       RATES FOR THIS TIME STEP      L**3/T
     ------------------                 ------------------------

           IN:                                      IN:
           ---                                      ---
             STORAGE     =   107579864.0000               STORAGE     =           0.4930
       CONSTANT HEAD     =           0.0000         CONSTANT HEAD     =           0.0000
               WELLS     =           0.0000                 WELLS     =           0.0000
     HEAD DEP BOUNDS     =     1233712.1250       HEAD DEP BOUNDS     =       7.9299E-02
      STREAM LEAKAGE     =    29390868.0000        STREAM LEAKAGE     =       2.2540E-02

                TOTAL IN =   138204448.0000                  TOTAL IN =           0.5949

          OUT:                                     OUT:
          ----                                     ----
             STORAGE     =     3382121.7500               STORAGE     =           0.0000
       CONSTANT HEAD     =           0.0000         CONSTANT HEAD     =           0.0000
               WELLS     =   118436440.0000                 WELLS     =           0.5949
     HEAD DEP BOUNDS     =    16385952.0000       HEAD DEP BOUNDS     =           0.0000
      STREAM LEAKAGE     =           0.0000        STREAM LEAKAGE     =           0.0000

               TOTAL OUT =   138204512.0000                 TOTAL OUT =           0.5949

                IN - OUT =         -64.0000                  IN - OUT =      -5.9605E-08

     PERCENT DISCREPANCY =          -0.00         PERCENT DISCREPANCY =          -0.00






         TIME SUMMARY AT END OF TIME STEP   30 IN STRESS PERIOD   37
                    SECONDS     MINUTES      HOURS       DAYS        YEARS
                    -----------------------------------------------------------
   TIME STEP LENGTH 2.49961E+05  4166.0      69.434      2.8931     7.92080E-03
 STRESS PERIOD TIME 2.59200E+06  43200.      720.00      30.000     8.21355E-02
         TOTAL TIME 9.59040E+07 1.59840E+06  26640.      1110.0      3.0390    
1
1
                            STRESS PERIOD NO.   38, LENGTH =   2592000.    
                            -----------------------------------------------

                              NUMBER OF TIME STEPS =    30

                               MULTIPLIER FOR DELT =     1.100

                            INITIAL TIME STEP SIZE =   15757.40    

 REUSING NON-PARAMETER WELLS FROM LAST STRESS PERIOD

      1 WELL 

 REUSING NON-PARAMETER GHB CELLS FROM LAST STRESS PERIOD

      7 GHB CELLS



 CLASSIFICATION & COUNT OF STREAM SEGMENTS BASED ON SOURCE OF INFLOW:

                HEADWATER     DIVERSION     RECEIVES TRIBUTARY FLOW
                ---------     ---------     -----------------------
                     1              0               0



                    INPUT DATA FOR EACH STREAM SEGMENT
 ---------------------------------------------------------------------------------------------

 SEGMENT    SEG.     INFLOW   OVERLAND   STREAM    STREAM   ICALC  OUTFLOW  DIVERSION PRIORITY
    NO.    LENGTH     RATE     RUNOFF      ET       PPT.    METH.  TO SEG.  FROM SEG.    NO.

      1  2.000E+04 3.730E+00 0.000E+00 0.000E+00 0.000E+00    2        0        0        0


         STREAMBED PROPERTIES AND STREAM DIMENSIONS

 SEGMENT     BED HYD. COND.      BED THICKNESS     ELEV.-TOP OF BED     WIDTH OF STREAM     DEPTH OF STREAM    STREAM ROUGHNESS
    No.     UPPER     LOWER     UPPER     LOWER     UPPER     LOWER     UPPER     LOWER     UPPER     LOWER   CHANNEL      BANK

     1  3.500E-07 3.500E-07                                                                                 3.000E-02 4.000E-02

  EIGHT POINT CROSS-SECTION DATA FOR SEGMENTS WITH ICALC = 2
    X VALUES X VALUES START FROM LEFT SIDE LOOKING DOWNSTREAM

     SEGMENT NO.        X1        X2        X3        X4        X5        X6        X7        X8
            1      0.000E+00 2.000E+00 4.000E+00 6.000E+00 8.000E+00 1.000E+01 1.200E+01 1.400E+01

    Z VALUES ARE RELATIVE TO STREAMBED ELEVATION

     SEGMENT NO.          Z1        Z2        Z3        Z4        Z5        Z6        Z7        Z8
            1      6.000E+00 4.500E+00 3.500E+00 0.000E+00 3.000E-01 3.500E+00 4.500E+00 6.000E+00



 
 SOLVING FOR HEAD 
                                                   Max.-Head-Change                         Max.-Flux-Residual
  Residual-Control   Outer-Iter.   Inner-Iter.     Column Row Layer    Maximum-Head-Change  Column Row Layer    Maximum-Flux-Residual          L2-NORM 
          0                 1           2            50    3     1      -0.5951360533E+00      50    3    1        -0.2324534325E+00      0.2941495552E+00
          0                 2           2            50    3     1       0.5777805283E-01      50    3    1         0.2270620913E-01      0.2825278873E-01
          0                 3           2            50    3     1      -0.5175923790E-02      50    3    1        -0.2054652458E-02      0.2559779070E-02
          0                 4           2            50    3     1       0.4106498651E-03      50    3    1         0.1644935493E-03      0.2049385025E-03
          0                 5           1            50    3     1      -0.2860764091E-04      50    3    1        -0.1156426934E-04      0.1440993004E-04
          0                 6           1            50    3     1       0.1717802255E-05      50    3    1         0.7007463794E-06      0.8732886716E-06
          0                 7           1            50    3     1      -0.8679833097E-07      50    3    1        -0.3573113122E-07      0.4453304961E-07

    ------------------------------------------------
       NWT REQUIRED            7 OUTER ITERATIONS 
       AND A TOTAL OF         11 INNER ITERATIONS.
    ------------------------------------------------

 NO OUTPUT CONTROL FOR STRESS PERIOD   38   TIME STEP    1
 
 WELLS WITH REDUCED PUMPING FOR STRESS PERIOD    38 TIME STEP     1
   LAY   ROW   COL         APPL.Q          ACT.Q        GW-HEAD       CELL-BOT
     1     3    50  -0.115019E+01  -0.485166E+00   0.501407E+01   0.000000E+00
     1     5    55  -0.115019E+01  -0.374000E+00   0.423140E+01   0.000000E+00
 
 
 SOLVING FOR HEAD 
                                                   Max.-Head-Change                         Max.-Flux-Residual
  Residual-Control   Outer-Iter.   Inner-Iter.     Column Row Layer    Maximum-Head-Change  Column Row Layer    Maximum-Flux-Residual          L2-NORM 
          0                 1           2            50    3     1      -0.3423656285E+00      50    3    1        -0.1238631156E+00      0.1598840444E+00
          0                 2           2            50    3     1       0.3272636430E-01      50    3    1         0.1190180535E-01      0.1522140773E-01
          0                 3           2            50    3     1      -0.2930581119E-02      50    3    1        -0.1076684338E-02      0.1377423014E-02
          0                 4           2            50    3     1       0.2325066839E-03      50    3    1         0.8619906341E-04      0.1103021569E-03
          0                 5           1            50    3     1      -0.1619721895E-04      50    3    1        -0.6059984013E-05      0.7757888803E-05
          0                 6           1            50    3     1       0.9725898683E-06      50    3    1         0.3672095839E-06      0.4702925544E-06

    ------------------------------------------------
       NWT REQUIRED            6 OUTER ITERATIONS 
       AND A TOTAL OF         10 INNER ITERATIONS.
    ------------------------------------------------

 NO OUTPUT CONTROL FOR STRESS PERIOD   38   TIME STEP    2
 
 WELLS WITH REDUCED PUMPING FOR STRESS PERIOD    38 TIME STEP     2
   LAY   ROW   COL         APPL.Q          ACT.Q        GW-HEAD       CELL-BOT
     1     3    50  -0.115019E+01  -0.437908E+00   0.470172E+01   0.000000E+00
     1     5    55  -0.115019E+01  -0.337373E+00   0.397857E+01   0.000000E+00
 
 
 SOLVING FOR HEAD 
                                                   Max.-Head-Change                         Max.-Flux-Residual
  Residual-Control   Outer-Iter.   Inner-Iter.     Column Row Layer    Maximum-Head-Change  Column Row Layer    Maximum-Flux-Residual          L2-NORM 
          0                 1           2            50    3     1      -0.1959102654E+00      50    3    1        -0.6474597440E-01      0.8834173340E-01
          0                 2           2            50    3     1       0.1876544502E-01      50    3    1         0.6254900653E-02      0.8465924323E-02
          0                 3           2            50    3     1      -0.1678391346E-02      50    3    1        -0.5651652054E-03      0.7639612658E-03
          0                 4           2            50    3     1       0.1331657381E-03      50    3    1         0.4525212601E-04      0.6120140493E-04
          0                 5           1            50    3     1      -0.9276409790E-05      50    3    1        -0.3181291534E-05      0.4307544886E-05
          0                 6           1            50    3     1       0.5570104792E-06      50    3    1         0.1927727087E-06      0.2613453061E-06

    ------------------------------------------------
       NWT REQUIRED            6 OUTER ITERATIONS 
       AND A TOTAL OF         10 INNER ITERATIONS.
    ------------------------------------------------

 NO OUTPUT CONTROL FOR STRESS PERIOD   38   TIME STEP    3
 
 WELLS WITH REDUCED PUMPING FOR STRESS PERIOD    38 TIME STEP     3
   LAY   ROW   COL         APPL.Q          ACT.Q        GW-HEAD       CELL-BOT
     1     3    50  -0.114985E+01  -0.411118E+00   0.452302E+01   0.000000E+00
     1     5    55  -0.114985E+01  -0.316279E+00   0.383042E+01   0.000000E+00
 
 
 SOLVING FOR HEAD 
                                                   Max.-Head-Change                         Max.-Flux-Residual
  Residual-Control   Outer-Iter.   Inner-Iter.     Column Row Layer    Maximum-Head-Change  Column Row Layer    Maximum-Flux-Residual          L2-NORM 
          0                 1           2            50    3     1      -0.1138953748E+00      50    3    1        -0.3385083567E-01      0.5297782696E-01
          0                 2           2            50    3     1       0.1093777008E-01      50    3    1         0.3301072743E-02      0.5098614828E-02
          0                 3           2            50    3     1      -0.9770442450E-03      50    3    1        -0.2979206468E-03      0.4584799007E-03
          0                 4           1            50    3     1       0.7751659938E-04      50    3    1         0.2385690785E-04      0.3676705572E-04
          0                 5           1            50    3     1      -0.5399374993E-05      50    3    1        -0.1677143425E-05      0.2592841462E-05
          0                 6           1            50    3     1       0.3241986462E-06      50    3    1         0.1016271416E-06      0.1576605181E-06

    ------------------------------------------------
       NWT REQUIRED            6 OUTER ITERATIONS 
       AND A TOTAL OF          9 INNER ITERATIONS.
    ------------------------------------------------

 NO OUTPUT CONTROL FOR STRESS PERIOD   38   TIME STEP    4
 
 WELLS WITH REDUCED PUMPING FOR STRESS PERIOD    38 TIME STEP     4
   LAY   ROW   COL         APPL.Q          ACT.Q        GW-HEAD       CELL-BOT
     1     3    50  -0.115016E+01  -0.395880E+00   0.441916E+01   0.000000E+00
     1     5    55  -0.115016E+01  -0.304124E+00   0.374283E+01   0.000000E+00
 
 
 SOLVING FOR HEAD 
                                                   Max.-Head-Change                         Max.-Flux-Residual
  Residual-Control   Outer-Iter.   Inner-Iter.     Column Row Layer    Maximum-Head-Change  Column Row Layer    Maximum-Flux-Residual          L2-NORM 
          0                 1           2            50    3     1      -0.6806004108E-01      50    3    1        -0.1780047422E-01      0.3671261287E-01
          0                 2           2            50    3     1       0.6483768029E-02      50    3    1         0.1750970756E-02      0.3520873126E-02
          0                 3           2            50    3     1      -0.5749240825E-03      50    3    1        -0.1578730617E-03      0.3149640689E-03
          0                 4           1            50    3     1       0.4454106209E-04      50    3    1         0.1264338155E-04      0.2514788777E-04
          0                 5           1            50    3     1      -0.3046756512E-05      50    3    1        -0.8888096571E-06      0.1776416477E-05
          0                 6           1            50    3     1       0.1805666908E-06      50    3    1         0.5385698107E-07      0.1084651341E-06

    ------------------------------------------------
       NWT REQUIRED            6 OUTER ITERATIONS 
       AND A TOTAL OF          9 INNER ITERATIONS.
    ------------------------------------------------

 NO OUTPUT CONTROL FOR STRESS PERIOD   38   TIME STEP    5
 
 WELLS WITH REDUCED PUMPING FOR STRESS PERIOD    38 TIME STEP     5
   LAY   ROW   COL         APPL.Q          ACT.Q        GW-HEAD       CELL-BOT
     1     3    50  -0.115008E+01  -0.386734E+00   0.435705E+01   0.000000E+00
     1     5    55  -0.115008E+01  -0.296798E+00   0.369008E+01   0.000000E+00
 
 
 SOLVING FOR HEAD 
                                                   Max.-Head-Change                         Max.-Flux-Residual
  Residual-Control   Outer-Iter.   Inner-Iter.     Column Row Layer    Maximum-Head-Change  Column Row Layer    Maximum-Flux-Residual          L2-NORM 
          0                 1           2            50    2     1      -0.5593095683E-01      50    3    1        -0.9643133084E-02      0.2978813735E-01
          0                 2           2            50    2     1       0.5510148256E-02      50    3    1         0.9551860008E-03      0.2860783393E-02
          0                 3           2            50    2     1      -0.4904483557E-03      50    3    1        -0.8606112230E-04      0.2548196182E-03
          0                 4           1            50    2     1       0.3885997784E-04      50    3    1         0.6892764919E-05      0.2049909043E-04
          0                 5           1            50    2     1      -0.2703617248E-05      50    3    1        -0.4845367518E-06      0.1457147455E-05
          0                 6           1            50    2     1       0.1621985357E-06      50    3    1         0.2935961724E-07      0.8944363487E-07

    ------------------------------------------------
       NWT REQUIRED            6 OUTER ITERATIONS 
       AND A TOTAL OF          9 INNER ITERATIONS.
    ------------------------------------------------

 NO OUTPUT CONTROL FOR STRESS PERIOD   38   TIME STEP    6
 
 WELLS WITH REDUCED PUMPING FOR STRESS PERIOD    38 TIME STEP     6
   LAY   ROW   COL         APPL.Q          ACT.Q        GW-HEAD       CELL-BOT
     1     3    50  -0.114993E+01  -0.380962E+00   0.431790E+01   0.000000E+00
     1     5    55  -0.114993E+01  -0.292194E+00   0.365689E+01   0.000000E+00
 
 
 SOLVING FOR HEAD 
                                                   Max.-Head-Change                         Max.-Flux-Residual
  Residual-Control   Outer-Iter.   Inner-Iter.     Column Row Layer    Maximum-Head-Change  Column Row Layer    Maximum-Flux-Residual          L2-NORM 
          0                 1           2            50    2     1      -0.5031995594E-01      50    2    1        -0.7217099407E-02      0.2677299621E-01
          0                 2           2            50    2     1       0.4954958139E-02      50    2    1         0.7184359181E-03      0.2580775867E-02
          0                 3           2            50    2     1      -0.4410134039E-03      50    2    1        -0.6469204326E-04      0.2305626400E-03
          0                 4           1            50    2     1       0.3494066283E-04      50    2    1         0.5181567262E-05      0.1861916301E-04
          0                 5           1            50    2     1      -0.2430798750E-05      50    2    1        -0.3642608578E-06      0.1328928779E-05
          0                 6           1            50    2     1       0.1458240227E-06      50    2    1         0.2207276092E-07      0.8190382553E-07

    ------------------------------------------------
       NWT REQUIRED            6 OUTER ITERATIONS 
       AND A TOTAL OF          9 INNER ITERATIONS.
    ------------------------------------------------

 NO OUTPUT CONTROL FOR STRESS PERIOD   38   TIME STEP    7
 
 WELLS WITH REDUCED PUMPING FOR STRESS PERIOD    38 TIME STEP     7
   LAY   ROW   COL         APPL.Q          ACT.Q        GW-HEAD       CELL-BOT
     1     3    50  -0.114987E+01  -0.377051E+00   0.429122E+01   0.000000E+00
     1     5    55  -0.114987E+01  -0.289112E+00   0.363453E+01   0.000000E+00
 
 
 SOLVING FOR HEAD 
                                                   Max.-Head-Change                         Max.-Flux-Residual
  Residual-Control   Outer-Iter.   Inner-Iter.     Column Row Layer    Maximum-Head-Change  Column Row Layer    Maximum-Flux-Residual          L2-NORM 
          0                 1           2            50    2     1      -0.4524206382E-01      50    2    1        -0.5903082519E-02      0.2524920961E-01
          0                 2           2            50    2     1       0.4454177649E-02      50    2    1         0.5874949244E-03      0.2442221042E-02
          0                 3           2            50    2     1      -0.3963915545E-03      50    2    1        -0.5290256113E-04      0.2187934766E-03
          0                 4           1            50    2     1       0.3140232607E-04      50    2    1         0.4237269120E-05      0.1772324219E-04
          0                 5           1            50    2     1      -0.2184459120E-05      50    2    1        -0.2978773574E-06      0.1269119135E-05
          0                 6           1            50    2     1       0.1310372489E-06      50    2    1         0.1805018385E-07      0.7847956530E-07

    ------------------------------------------------
       NWT REQUIRED            6 OUTER ITERATIONS 
       AND A TOTAL OF          9 INNER ITERATIONS.
    ------------------------------------------------

 NO OUTPUT CONTROL FOR STRESS PERIOD   38   TIME STEP    8
 
 WELLS WITH REDUCED PUMPING FOR STRESS PERIOD    38 TIME STEP     8
   LAY   ROW   COL         APPL.Q          ACT.Q        GW-HEAD       CELL-BOT
     1     3    50  -0.114990E+01  -0.374176E+00   0.427139E+01   0.000000E+00
     1     5    55  -0.114990E+01  -0.286883E+00   0.361818E+01   0.000000E+00
 
 
 SOLVING FOR HEAD 
                                                   Max.-Head-Change                         Max.-Flux-Residual
  Residual-Control   Outer-Iter.   Inner-Iter.     Column Row Layer    Maximum-Head-Change  Column Row Layer    Maximum-Flux-Residual          L2-NORM 
          0                 1           2            50    2     1      -0.4092281404E-01      50    2    1        -0.4824977136E-02      0.2434069814E-01
          0                 2           2            50    2     1       0.4028793543E-02      50    2    1         0.4802777206E-03      0.2359732279E-02
          0                 3           2            50    2     1      -0.3584625899E-03      50    2    1        -0.4324706387E-04      0.2118089590E-03
          0                 4           1            50    2     1       0.2839373558E-04      50    2    1         0.3463911957E-05      0.1719756700E-04
          0                 5           1            50    2     1      -0.1974939506E-05      50    2    1        -0.2435107898E-06      0.1234845491E-05
          0                 6           1            50    2     1       0.1184579820E-06      50    2    1         0.1475578565E-07      0.7659018635E-07

    ------------------------------------------------
       NWT REQUIRED            6 OUTER ITERATIONS 
       AND A TOTAL OF          9 INNER ITERATIONS.
    ------------------------------------------------

 NO OUTPUT CONTROL FOR STRESS PERIOD   38   TIME STEP    9
 
 WELLS WITH REDUCED PUMPING FOR STRESS PERIOD    38 TIME STEP     9
   LAY   ROW   COL         APPL.Q          ACT.Q        GW-HEAD       CELL-BOT
     1     3    50  -0.114995E+01  -0.371887E+00   0.425551E+01   0.000000E+00
     1     5    55  -0.114995E+01  -0.285137E+00   0.360528E+01   0.000000E+00
 
 
 SOLVING FOR HEAD 
                                                   Max.-Head-Change                         Max.-Flux-Residual
  Residual-Control   Outer-Iter.   Inner-Iter.     Column Row Layer    Maximum-Head-Change  Column Row Layer    Maximum-Flux-Residual          L2-NORM 
          0                 1           2            50    1     1      -0.3830730807E-01      50    2    1        -0.3967587108E-02      0.2372667157E-01
          0                 2           2            50    1     1       0.3788150570E-02      50    2    1         0.3950684073E-03      0.2303403347E-02
          0                 3           2            50    1     1      -0.3376836355E-03      50    2    1        -0.3557296775E-04      0.2070220839E-03
          0                 4           1            50    1     1       0.2679058003E-04      50    2    1         0.2849259243E-05      0.1684074833E-04
          0                 5           1            50    1     1      -0.1865317078E-05      50    2    1        -0.2003010293E-06      0.1212177007E-05
          0                 6           1            50    1     1       0.1119585669E-06      50    2    1         0.1213744610E-07      0.7539842083E-07

    ------------------------------------------------
       NWT REQUIRED            6 OUTER ITERATIONS 
       AND A TOTAL OF          9 INNER ITERATIONS.
    ------------------------------------------------

 NO OUTPUT CONTROL FOR STRESS PERIOD   38   TIME STEP   10
 
 WELLS WITH REDUCED PUMPING FOR STRESS PERIOD    38 TIME STEP    10
   LAY   ROW   COL         APPL.Q          ACT.Q        GW-HEAD       CELL-BOT
     1     3    50  -0.114990E+01  -0.369936E+00   0.424216E+01   0.000000E+00
     1     5    55  -0.114990E+01  -0.283665E+00   0.359456E+01   0.000000E+00
 
 
 SOLVING FOR HEAD 
                                                   Max.-Head-Change                         Max.-Flux-Residual
  Residual-Control   Outer-Iter.   Inner-Iter.     Column Row Layer    Maximum-Head-Change  Column Row Layer    Maximum-Flux-Residual          L2-NORM 
          0                 1           2            50    1     1      -0.3815447617E-01      50    1    1        -0.3374923826E-02      0.2328883310E-01
          0                 2           2            50    1     1       0.3771542049E-02      50    1    1         0.3368755428E-03      0.2262684378E-02
          0                 3           2            50    1     1      -0.3361852594E-03      50    1    1        -0.3032492413E-04      0.2035339956E-03
          0                 4           1            50    1     1       0.2666976160E-04      50    1    1         0.2428977922E-05      0.1658292052E-04
          0                 5           1            50    1     1      -0.1856642613E-05      50    1    1        -0.1706933312E-06      0.1196280382E-05
          0                 6           1            50    1     1       0.1114228335E-06      50    1    1         0.1033933983E-07      0.7461462745E-07

    ------------------------------------------------
       NWT REQUIRED            6 OUTER ITERATIONS 
       AND A TOTAL OF          9 INNER ITERATIONS.
    ------------------------------------------------

 NO OUTPUT CONTROL FOR STRESS PERIOD   38   TIME STEP   11
 
 WELLS WITH REDUCED PUMPING FOR STRESS PERIOD    38 TIME STEP    11
   LAY   ROW   COL         APPL.Q          ACT.Q        GW-HEAD       CELL-BOT
     1     3    50  -0.115004E+01  -0.368247E+00   0.423020E+01   0.000000E+00
     1     5    55  -0.115004E+01  -0.282403E+00   0.358504E+01   0.000000E+00
 
 
 SOLVING FOR HEAD 
                                                   Max.-Head-Change                         Max.-Flux-Residual
  Residual-Control   Outer-Iter.   Inner-Iter.     Column Row Layer    Maximum-Head-Change  Column Row Layer    Maximum-Flux-Residual          L2-NORM 
          0                 1           2            50    1     1      -0.3753985523E-01      50    1    1        -0.3055991350E-02      0.2294918802E-01
          0                 2           2            50    1     1       0.3709495060E-02      50    1    1         0.3049266230E-03      0.2230584468E-02
          0                 3           2            50    1     1      -0.3306213538E-03      50    1    1        -0.2745005155E-04      0.2007646055E-03
          0                 4           1            50    1     1       0.2622565842E-04      50    1    1         0.2198696335E-05      0.1638007968E-04
          0                 5           1            50    1     1      -0.1825354375E-05      50    1    1        -0.1544849715E-06      0.1184136184E-05
          0                 6           1            50    1     1       0.1095237198E-06      50    1    1         0.9355866137E-08      0.7405662743E-07

    ------------------------------------------------
       NWT REQUIRED            6 OUTER ITERATIONS 
       AND A TOTAL OF          9 INNER ITERATIONS.
    ------------------------------------------------

 NO OUTPUT CONTROL FOR STRESS PERIOD   38   TIME STEP   12
 
 WELLS WITH REDUCED PUMPING FOR STRESS PERIOD    38 TIME STEP    12
   LAY   ROW   COL         APPL.Q          ACT.Q        GW-HEAD       CELL-BOT
     1     3    50  -0.115006E+01  -0.366684E+00   0.421936E+01   0.000000E+00
     1     5    55  -0.115006E+01  -0.281242E+00   0.357646E+01   0.000000E+00
 
 
 SOLVING FOR HEAD 
                                                   Max.-Head-Change                         Max.-Flux-Residual
  Residual-Control   Outer-Iter.   Inner-Iter.     Column Row Layer    Maximum-Head-Change  Column Row Layer    Maximum-Flux-Residual          L2-NORM 
          0                 1           2            50    1     1      -0.3660612255E-01      50    1    1        -0.2733513648E-02      0.2267881707E-01
          0                 2           2            50    1     1       0.3616068565E-02      50    1    1         0.2726841895E-03      0.2204773565E-02
          0                 3           2            50    1     1      -0.3222445953E-03      50    1    1        -0.2454817215E-04      0.1985274067E-03
          0                 4           1            50    1     1       0.2555755546E-04      50    1    1         0.1966256197E-05      0.1621795818E-04
          0                 5           1            50    1     1      -0.1778344386E-05      50    1    1        -0.1381206444E-06      0.1174729542E-05
          0                 6           1            50    1     1       0.1066735434E-06      50    1    1         0.8362653514E-08      0.7366092523E-07

    ------------------------------------------------
       NWT REQUIRED            6 OUTER ITERATIONS 
       AND A TOTAL OF          9 INNER ITERATIONS.
    ------------------------------------------------

 NO OUTPUT CONTROL FOR STRESS PERIOD   38   TIME STEP   13
 
 WELLS WITH REDUCED PUMPING FOR STRESS PERIOD    38 TIME STEP    13
   LAY   ROW   COL         APPL.Q          ACT.Q        GW-HEAD       CELL-BOT
     1     3    50  -0.115006E+01  -0.365228E+00   0.420930E+01   0.000000E+00
     1     5    55  -0.115006E+01  -0.280165E+00   0.356852E+01   0.000000E+00
 
 
 SOLVING FOR HEAD 
                                                   Max.-Head-Change                         Max.-Flux-Residual
  Residual-Control   Outer-Iter.   Inner-Iter.     Column Row Layer    Maximum-Head-Change  Column Row Layer    Maximum-Flux-Residual          L2-NORM 
          0                 1           2            50    1     1      -0.3547495304E-01      50    1    1        -0.2423276707E-02      0.2245749873E-01
          0                 2           2            50    1     1       0.3503237322E-02      50    1    1         0.2417040647E-03      0.2183365896E-02
          0                 3           2            50    1     1      -0.3121227874E-03      50    1    1        -0.2175953146E-04      0.1966566473E-03
          0                 4           1            50    1     1       0.2474999958E-04      50    1    1         0.1742889416E-05      0.1608377102E-04
          0                 5           1            50    1     1      -0.1721468178E-05      50    1    1        -0.1223896501E-06      0.1167187008E-05
          0                 6           1            50    1     1       0.1032217086E-06      50    1    1         0.7407504277E-08      0.7337536388E-07

    ------------------------------------------------
       NWT REQUIRED            6 OUTER ITERATIONS 
       AND A TOTAL OF          9 INNER ITERATIONS.
    ------------------------------------------------

 NO OUTPUT CONTROL FOR STRESS PERIOD   38   TIME STEP   14
 
 WELLS WITH REDUCED PUMPING FOR STRESS PERIOD    38 TIME STEP    14
   LAY   ROW   COL         APPL.Q          ACT.Q        GW-HEAD       CELL-BOT
     1     3    50  -0.115002E+01  -0.363844E+00   0.419979E+01   0.000000E+00
     1     5    55  -0.115002E+01  -0.279142E+00   0.356103E+01   0.000000E+00
 
 
 SOLVING FOR HEAD 
                                                   Max.-Head-Change                         Max.-Flux-Residual
  Residual-Control   Outer-Iter.   Inner-Iter.     Column Row Layer    Maximum-Head-Change  Column Row Layer    Maximum-Flux-Residual          L2-NORM 
          0                 1           2            50    1     1      -0.3424983462E-01      50    1    1        -0.2134966663E-02      0.2227238039E-01
          0                 2           2            50    1     1       0.3381081659E-02      50    1    1         0.2129374675E-03      0.2165279836E-02
          0                 3           2            50    1     1      -0.3011510012E-03      50    1    1        -0.1916990835E-04      0.1950872851E-03
          0                 4           1            50    1     1       0.2387381526E-04      50    1    1         0.1535465531E-05      0.1597393504E-04
          0                 5           1            50    1     1      -0.1659628460E-05      50    1    1        -0.1077744247E-06      0.1161245867E-05
          0                 6           1            50    1     1       0.9946065351E-07      50    1    1         0.6519612628E-08      0.7317878218E-07

    ------------------------------------------------
       NWT REQUIRED            6 OUTER ITERATIONS 
       AND A TOTAL OF          9 INNER ITERATIONS.
    ------------------------------------------------

 NO OUTPUT CONTROL FOR STRESS PERIOD   38   TIME STEP   15
 
 WELLS WITH REDUCED PUMPING FOR STRESS PERIOD    38 TIME STEP    15
   LAY   ROW   COL         APPL.Q          ACT.Q        GW-HEAD       CELL-BOT
     1     3    50  -0.115002E+01  -0.362518E+00   0.419060E+01   0.000000E+00
     1     5    55  -0.115002E+01  -0.278167E+00   0.355383E+01   0.000000E+00
 
 
 SOLVING FOR HEAD 
                                                   Max.-Head-Change                         Max.-Flux-Residual
  Residual-Control   Outer-Iter.   Inner-Iter.     Column Row Layer    Maximum-Head-Change  Column Row Layer    Maximum-Flux-Residual          L2-NORM 
          0                 1           2            50    1     1      -0.3301100518E-01      50    1    1        -0.1873911062E-02      0.2211217409E-01
          0                 2           2            50    1     1       0.3257484174E-02      50    1    1         0.1869037649E-03      0.2149684541E-02
          0                 3           2            50    1     1      -0.2900333996E-03      50    1    1        -0.1682617522E-04      0.1937447042E-03
          0                 4           1            50    1     1       0.2298482085E-04      50    1    1         0.1347737993E-05      0.1588164984E-04
          0                 5           1            50    1     1      -0.1596680251E-05      50    1    1        -0.9453848043E-07      0.1156332519E-05
          0                 6           1            50    1     1       0.9561948835E-07      50    1    1         0.5714914597E-08      0.7303139472E-07

    ------------------------------------------------
       NWT REQUIRED            6 OUTER ITERATIONS 
       AND A TOTAL OF          9 INNER ITERATIONS.
    ------------------------------------------------

 NO OUTPUT CONTROL FOR STRESS PERIOD   38   TIME STEP   16
 
 WELLS WITH REDUCED PUMPING FOR STRESS PERIOD    38 TIME STEP    16
   LAY   ROW   COL         APPL.Q          ACT.Q        GW-HEAD       CELL-BOT
     1     3    50  -0.115002E+01  -0.361227E+00   0.418164E+01   0.000000E+00
     1     5    55  -0.115002E+01  -0.277220E+00   0.354682E+01   0.000000E+00
 
 
 SOLVING FOR HEAD 
                                                   Max.-Head-Change                         Max.-Flux-Residual
  Residual-Control   Outer-Iter.   Inner-Iter.     Column Row Layer    Maximum-Head-Change  Column Row Layer    Maximum-Flux-Residual          L2-NORM 
          0                 1           2            50    1     1      -0.3181982244E-01      50    1    1        -0.1641997412E-02      0.2197384384E-01
          0                 2           2            50    1     1       0.3137974433E-02      50    1    1         0.1637835006E-03      0.2135952676E-02
          0                 3           2            50    1     1      -0.2792348555E-03      50    1    1        -0.1474466608E-04      0.1925441736E-03
          0                 4           1            50    1     1       0.2211860373E-04      50    1    1         0.1181014449E-05      0.1579927487E-04
          0                 5           1            50    1     1      -0.1535040955E-05      50    1    1        -0.8277339930E-07      0.1151895449E-05
          0                 6           1            50    1     1       0.9184214244E-07      50    1    1         0.4998922498E-08      0.7290022947E-07

    ------------------------------------------------
       NWT REQUIRED            6 OUTER ITERATIONS 
       AND A TOTAL OF          9 INNER ITERATIONS.
    ------------------------------------------------

 NO OUTPUT CONTROL FOR STRESS PERIOD   38   TIME STEP   17
 
 WELLS WITH REDUCED PUMPING FOR STRESS PERIOD    38 TIME STEP    17
   LAY   ROW   COL         APPL.Q          ACT.Q        GW-HEAD       CELL-BOT
     1     3    50  -0.115005E+01  -0.359962E+00   0.417281E+01   0.000000E+00
     1     5    55  -0.115005E+01  -0.276294E+00   0.353993E+01   0.000000E+00
 
 
 SOLVING FOR HEAD 
                                                   Max.-Head-Change                         Max.-Flux-Residual
  Residual-Control   Outer-Iter.   Inner-Iter.     Column Row Layer    Maximum-Head-Change  Column Row Layer    Maximum-Flux-Residual          L2-NORM 
          0                 1           2            51    1     1      -0.3157096844E-01      50    1    1        -0.1438943539E-02      0.2185044933E-01
          0                 2           2            51    1     1       0.3107121573E-02      50    1    1         0.1435433042E-03      0.2123881480E-02
          0                 3           2            51    1     1      -0.2759899565E-03      50    1    1        -0.1292242157E-04      0.1915031306E-03
          0                 4           1            51    1     1       0.2183985170E-04      50    1    1         0.1035057575E-05      0.1572920595E-04
          0                 5           1            51    1     1      -0.1516501717E-05      50    1    1        -0.7246227457E-07      0.1148020367E-05
          0                 6           1            51    1     1       0.9082338673E-07       2    4    1        -0.4899273875E-08      0.7278220183E-07

    ------------------------------------------------
       NWT REQUIRED            6 OUTER ITERATIONS 
       AND A TOTAL OF          9 INNER ITERATIONS.
    ------------------------------------------------

 NO OUTPUT CONTROL FOR STRESS PERIOD   38   TIME STEP   18
 
 WELLS WITH REDUCED PUMPING FOR STRESS PERIOD    38 TIME STEP    18
   LAY   ROW   COL         APPL.Q          ACT.Q        GW-HEAD       CELL-BOT
     1     3    50  -0.115004E+01  -0.358707E+00   0.416412E+01   0.000000E+00
     1     5    55  -0.115004E+01  -0.275368E+00   0.353309E+01   0.000000E+00
 
 
 SOLVING FOR HEAD 
                                                   Max.-Head-Change                         Max.-Flux-Residual
  Residual-Control   Outer-Iter.   Inner-Iter.     Column Row Layer    Maximum-Head-Change  Column Row Layer    Maximum-Flux-Residual          L2-NORM 
          0                 1           2             1    1     1      -0.3284600776E-01      51    1    1        -0.1298141704E-02      0.2173856432E-01
          0                 2           2            51    1     1       0.3187047599E-02      51    1    1         0.1296015292E-03      0.2112886925E-02
          0                 3           2            51    1     1      -0.2828563560E-03      51    1    1        -0.1166645219E-04      0.1905467937E-03
          0                 4           1            51    1     1       0.2236792498E-04      51    1    1         0.9344632990E-06      0.1566515441E-04
          0                 5           1            51    1     1      -0.1551572678E-05      51    1    1        -0.6569199390E-07      0.1144194456E-05
          0                 6           1            51    1     1       0.9283595965E-07       2    4    1        -0.4972818601E-08      0.7264024339E-07

    ------------------------------------------------
       NWT REQUIRED            6 OUTER ITERATIONS 
       AND A TOTAL OF          9 INNER ITERATIONS.
    ------------------------------------------------

 NO OUTPUT CONTROL FOR STRESS PERIOD   38   TIME STEP   19
 
 WELLS WITH REDUCED PUMPING FOR STRESS PERIOD    38 TIME STEP    19
   LAY   ROW   COL         APPL.Q          ACT.Q        GW-HEAD       CELL-BOT
     1     3    50  -0.114997E+01  -0.357459E+00   0.415558E+01   0.000000E+00
     1     5    55  -0.114997E+01  -0.274436E+00   0.352629E+01   0.000000E+00
 
 
 SOLVING FOR HEAD 
                                                   Max.-Head-Change                         Max.-Flux-Residual
  Residual-Control   Outer-Iter.   Inner-Iter.     Column Row Layer    Maximum-Head-Change  Column Row Layer    Maximum-Flux-Residual          L2-NORM 
          0                 1           2             1    1     1      -0.3610217599E-01       1    7    1        -0.1231604581E-02      0.2163920328E-01
          0                 2           2             1    1     1       0.3426023166E-02       1    7    1         0.1231581611E-03      0.2102957810E-02
          0                 3           2             1    1     1      -0.2923061642E-03       1    7    1        -0.1108447426E-04      0.1896726023E-03
          0                 4           1            51    1     1       0.2282028834E-04       1    7    1         0.8878632203E-06      0.1560628560E-04
          0                 5           1            51    1     1      -0.1580765309E-05       1    1    1        -0.6241595329E-07      0.1140241506E-05
          0                 6           1            51    1     1       0.9445789542E-07       2    4    1        -0.5040298845E-08      0.7245769416E-07

    ------------------------------------------------
       NWT REQUIRED            6 OUTER ITERATIONS 
       AND A TOTAL OF          9 INNER ITERATIONS.
    ------------------------------------------------

 NO OUTPUT CONTROL FOR STRESS PERIOD   38   TIME STEP   20
 
 WELLS WITH REDUCED PUMPING FOR STRESS PERIOD    38 TIME STEP    20
   LAY   ROW   COL         APPL.Q          ACT.Q        GW-HEAD       CELL-BOT
     1     3    50  -0.114997E+01  -0.356215E+00   0.414694E+01   0.000000E+00
     1     5    55  -0.114997E+01  -0.273504E+00   0.351938E+01   0.000000E+00
 
 
 SOLVING FOR HEAD 
                                                   Max.-Head-Change                         Max.-Flux-Residual
  Residual-Control   Outer-Iter.   Inner-Iter.     Column Row Layer    Maximum-Head-Change  Column Row Layer    Maximum-Flux-Residual          L2-NORM 
          0                 1           2             1    1     1      -0.3967877754E-01       1    7    1        -0.1230795224E-02      0.2154672389E-01
          0                 2           2             1    1     1       0.3760047195E-02       1    1    1         0.1230769060E-03      0.2093920902E-02
          0                 3           2             1    1     1      -0.3202504807E-03       1    7    1        -0.1107719319E-04      0.1888887784E-03
          0                 4           1             1    1     1       0.2422803084E-04       1    7    1         0.8872795516E-06      0.1555452963E-04
          0                 5           1            51    1     1      -0.1606193046E-05       1    7    1        -0.6237492345E-07      0.1136254645E-05
          0                 6           1            51    1     1       0.9580586618E-07       2    4    1        -0.5101384204E-08      0.7223461144E-07

    ------------------------------------------------
       NWT REQUIRED            6 OUTER ITERATIONS 
       AND A TOTAL OF          9 INNER ITERATIONS.
    ------------------------------------------------

 NO OUTPUT CONTROL FOR STRESS PERIOD   38   TIME STEP   21
 
 WELLS WITH REDUCED PUMPING FOR STRESS PERIOD    38 TIME STEP    21
   LAY   ROW   COL         APPL.Q          ACT.Q        GW-HEAD       CELL-BOT
     1     3    50  -0.115000E+01  -0.354962E+00   0.413814E+01   0.000000E+00
     1     5    55  -0.115000E+01  -0.272562E+00   0.351231E+01   0.000000E+00
 
 
 SOLVING FOR HEAD 
                                                   Max.-Head-Change                         Max.-Flux-Residual
  Residual-Control   Outer-Iter.   Inner-Iter.     Column Row Layer    Maximum-Head-Change  Column Row Layer    Maximum-Flux-Residual          L2-NORM 
          0                 1           2             1    1     1      -0.4360682916E-01       1    7    1        -0.1229905808E-02      0.2145938316E-01
          0                 2           2             1    1     1       0.4126640939E-02       1    1    1         0.1229876067E-03      0.2085247773E-02
          0                 3           2             1    1     1      -0.3508906704E-03       1    7    1        -0.1106919166E-04      0.1881229810E-03
          0                 4           1             1    1     1       0.2648715858E-04       1    1    1         0.8866381229E-06      0.1550303817E-04
          0                 5           1             3    1     1      -0.1731604548E-05       1    7    1        -0.6232984218E-07      0.1131561776E-05
          0                 6           1             1    1     1       0.9723692854E-07       7    4    1        -0.5167173356E-08      0.7191877252E-07

    ------------------------------------------------
       NWT REQUIRED            6 OUTER ITERATIONS 
       AND A TOTAL OF          9 INNER ITERATIONS.
    ------------------------------------------------

 NO OUTPUT CONTROL FOR STRESS PERIOD   38   TIME STEP   22
 
 WELLS WITH REDUCED PUMPING FOR STRESS PERIOD    38 TIME STEP    22
   LAY   ROW   COL         APPL.Q          ACT.Q        GW-HEAD       CELL-BOT
     1     3    50  -0.114999E+01  -0.353686E+00   0.412926E+01   0.000000E+00
     1     5    55  -0.114999E+01  -0.271596E+00   0.350514E+01   0.000000E+00
 
 
 SOLVING FOR HEAD 
                                                   Max.-Head-Change                         Max.-Flux-Residual
  Residual-Control   Outer-Iter.   Inner-Iter.     Column Row Layer    Maximum-Head-Change  Column Row Layer    Maximum-Flux-Residual          L2-NORM 
          0                 1           2             1    1     1      -0.4792086898E-01       1    7    1        -0.1228928463E-02      0.2137634529E-01
          0                 2           2             1    1     1       0.4529154380E-02       1    1    1         0.1228894815E-03      0.2077068234E-02
          0                 3           2             1    1     1      -0.3845162148E-03       1    7    1        -0.1106039937E-04      0.1873967412E-03
          0                 4           1             1    1     1       0.2896188867E-04       1    1    1         0.8859332965E-06      0.1545322728E-04
          0                 5           1             3    1     1      -0.1881732329E-05       1    1    1        -0.6228029292E-07      0.1126068357E-05
          0                 6           1             3    1     1       0.1047990694E-06       7    4    1        -0.5219966681E-08      0.7149383243E-07

    ------------------------------------------------
       NWT REQUIRED            6 OUTER ITERATIONS 
       AND A TOTAL OF          9 INNER ITERATIONS.
    ------------------------------------------------

 NO OUTPUT CONTROL FOR STRESS PERIOD   38   TIME STEP   23
 
 WELLS WITH REDUCED PUMPING FOR STRESS PERIOD    38 TIME STEP    23
   LAY   ROW   COL         APPL.Q          ACT.Q        GW-HEAD       CELL-BOT
     1     3    50  -0.115002E+01  -0.352391E+00   0.412017E+01   0.000000E+00
     1     5    55  -0.115002E+01  -0.270609E+00   0.349774E+01   0.000000E+00
 
 
 SOLVING FOR HEAD 
                                                   Max.-Head-Change                         Max.-Flux-Residual
  Residual-Control   Outer-Iter.   Inner-Iter.     Column Row Layer    Maximum-Head-Change  Column Row Layer    Maximum-Flux-Residual          L2-NORM 
          0                 1           2             1    1     1      -0.5267452719E-01       1    7    1        -0.1227867419E-02      0.2129561772E-01
          0                 2           2             1    1     1       0.4973478546E-02       1    1    1         0.1227831919E-03      0.2069153231E-02
          0                 3           2             1    1     1      -0.4216947309E-03       1    7    1        -0.1105087304E-04      0.1866795307E-03
          0                 4           1             1    1     1       0.3169850418E-04       1    7    1         0.8851696509E-06      0.1540165545E-04
          0                 5           1             3    1     1      -0.2044314130E-05       7    4    1         0.6228252758E-07      0.1119276583E-05
          0                 6           1             3    1     1       0.1127828834E-06       7    4    1        -0.5262048575E-08      0.7091638053E-07

    ------------------------------------------------
       NWT REQUIRED            6 OUTER ITERATIONS 
       AND A TOTAL OF          9 INNER ITERATIONS.
    ------------------------------------------------

 NO OUTPUT CONTROL FOR STRESS PERIOD   38   TIME STEP   24
 
 WELLS WITH REDUCED PUMPING FOR STRESS PERIOD    38 TIME STEP    24
   LAY   ROW   COL         APPL.Q          ACT.Q        GW-HEAD       CELL-BOT
     1     3    50  -0.114999E+01  -0.351064E+00   0.411095E+01   0.000000E+00
     1     5    55  -0.114999E+01  -0.269588E+00   0.349017E+01   0.000000E+00
 
 
 SOLVING FOR HEAD 
                                                   Max.-Head-Change                         Max.-Flux-Residual
  Residual-Control   Outer-Iter.   Inner-Iter.     Column Row Layer    Maximum-Head-Change  Column Row Layer    Maximum-Flux-Residual          L2-NORM 
          0                 1           3             1    1     1      -0.5791086306E-01       1    5    1        -0.1227231071E-02      0.2121931742E-01
          0                 2           2             1    1     1       0.5463040361E-02       1    5    1         0.1227176711E-03      0.2061506936E-02
          0                 3           2             1    1     1      -0.4626273788E-03       1    3    1        -0.1104517074E-04      0.1859662608E-03
          0                 4           1             1    1     1       0.3470386801E-04       1    3    1         0.8847108148E-06      0.1534823454E-04
          0                 5           1             3    1     1      -0.2217886070E-05       7    4    1         0.6272206221E-07      0.1111059622E-05
          0                 6           1             3    1     1       0.1209546153E-06       7    4    1        -0.5304436002E-08      0.7017730684E-07

    ------------------------------------------------
       NWT REQUIRED            6 OUTER ITERATIONS 
       AND A TOTAL OF         10 INNER ITERATIONS.
    ------------------------------------------------

 NO OUTPUT CONTROL FOR STRESS PERIOD   38   TIME STEP   25
 
 WELLS WITH REDUCED PUMPING FOR STRESS PERIOD    38 TIME STEP    25
   LAY   ROW   COL         APPL.Q          ACT.Q        GW-HEAD       CELL-BOT
     1     3    50  -0.115001E+01  -0.349709E+00   0.410145E+01   0.000000E+00
     1     5    55  -0.115001E+01  -0.268538E+00   0.348230E+01   0.000000E+00
 
 
 SOLVING FOR HEAD 
                                                   Max.-Head-Change                         Max.-Flux-Residual
  Residual-Control   Outer-Iter.   Inner-Iter.     Column Row Layer    Maximum-Head-Change  Column Row Layer    Maximum-Flux-Residual          L2-NORM 
          0                 1           3             1    1     1      -0.6366863720E-01       1    5    1        -0.1226821206E-02      0.2114265456E-01
          0                 2           2             1    1     1       0.6001051987E-02       1    5    1         0.1226761967E-03      0.2054079292E-02
          0                 3           2             1    1     1      -0.5076341203E-03       1    5    1        -0.1104149124E-04      0.1853001389E-03
          0                 4           1             1    1     1       0.3800504989E-04       1    3    1         0.8844153108E-06      0.1529947583E-04
          0                 5           1             3    1     1      -0.2400262440E-05       9    4    1         0.6358695259E-07      0.1102314561E-05
          0                 6           1             3    1     1       0.1290837215E-06       9    4    1        -0.5371862954E-08      0.6936600569E-07

    ------------------------------------------------
       NWT REQUIRED            6 OUTER ITERATIONS 
       AND A TOTAL OF         10 INNER ITERATIONS.
    ------------------------------------------------

 NO OUTPUT CONTROL FOR STRESS PERIOD   38   TIME STEP   26
 
 WELLS WITH REDUCED PUMPING FOR STRESS PERIOD    38 TIME STEP    26
   LAY   ROW   COL         APPL.Q          ACT.Q        GW-HEAD       CELL-BOT
     1     3    50  -0.115001E+01  -0.348315E+00   0.409170E+01   0.000000E+00
     1     5    55  -0.115001E+01  -0.267445E+00   0.347414E+01   0.000000E+00
 
 
 SOLVING FOR HEAD 
                                                   Max.-Head-Change                         Max.-Flux-Residual
  Residual-Control   Outer-Iter.   Inner-Iter.     Column Row Layer    Maximum-Head-Change  Column Row Layer    Maximum-Flux-Residual          L2-NORM 
          0                 1           3             1    1     1      -0.6999152624E-01       1    5    1        -0.1226297894E-02      0.2106569729E-01
          0                 2           2             1    1     1       0.6593279360E-02       1    5    1         0.1226232549E-03      0.2046606818E-02
          0                 3           2             1    1     1      -0.5572591285E-03       1    5    1        -0.1103678288E-04      0.1846032436E-03
          0                 4           1             1    1     1       0.4164042107E-04       1    3    1         0.8840373482E-06      0.1524544604E-04
          0                 5           1             3    1     1      -0.2593342596E-05       9    4    1         0.6429157651E-07      0.1091052700E-05
          0                 6           1             3    1     1       0.1370377243E-06       9    4    1        -0.5432692518E-08      0.6829638012E-07

    ------------------------------------------------
       NWT REQUIRED            6 OUTER ITERATIONS 
       AND A TOTAL OF         10 INNER ITERATIONS.
    ------------------------------------------------

 NO OUTPUT CONTROL FOR STRESS PERIOD   38   TIME STEP   27
 
 WELLS WITH REDUCED PUMPING FOR STRESS PERIOD    38 TIME STEP    27
   LAY   ROW   COL         APPL.Q          ACT.Q        GW-HEAD       CELL-BOT
     1     3    50  -0.115000E+01  -0.346879E+00   0.408166E+01   0.000000E+00
     1     5    55  -0.115000E+01  -0.266311E+00   0.346565E+01   0.000000E+00
 
 
 SOLVING FOR HEAD 
                                                   Max.-Head-Change                         Max.-Flux-Residual
  Residual-Control   Outer-Iter.   Inner-Iter.     Column Row Layer    Maximum-Head-Change  Column Row Layer    Maximum-Flux-Residual          L2-NORM 
          0                 1           3             1    1     1      -0.7692337694E-01       1    5    1        -0.1225536143E-02      0.2100935861E-01
          0                 2           2             1    1     1       0.7243428378E-02       1    5    1         0.1225463161E-03      0.2041214227E-02
          0                 3           2             1    1     1      -0.6117989456E-03       1    5    1        -0.1102991917E-04      0.1840760463E-03
          0                 4           1             1    1     1       0.4562846065E-04       1    5    1         0.8834866776E-06      0.1520169523E-04
          0                 5           1             3    1     1      -0.2793201991E-05       9    4    1         0.6520010487E-07      0.1078501358E-05
          0                 6           1             1    1     1       0.1444649680E-06       9    4    1        -0.5501139100E-08      0.6708121957E-07

    ------------------------------------------------
       NWT REQUIRED            6 OUTER ITERATIONS 
       AND A TOTAL OF         10 INNER ITERATIONS.
    ------------------------------------------------

 NO OUTPUT CONTROL FOR STRESS PERIOD   38   TIME STEP   28
 
 WELLS WITH REDUCED PUMPING FOR STRESS PERIOD    38 TIME STEP    28
   LAY   ROW   COL         APPL.Q          ACT.Q        GW-HEAD       CELL-BOT
     1     3    50  -0.114998E+01  -0.345394E+00   0.407129E+01   0.000000E+00
     1     5    55  -0.114998E+01  -0.265125E+00   0.345681E+01   0.000000E+00
 
 
 SOLVING FOR HEAD 
                                                   Max.-Head-Change                         Max.-Flux-Residual
  Residual-Control   Outer-Iter.   Inner-Iter.     Column Row Layer    Maximum-Head-Change  Column Row Layer    Maximum-Flux-Residual          L2-NORM 
          0                 1           3             1    1     1      -0.8455522454E-01       1    5    1        -0.1224422299E-02      0.2100601756E-01
          0                 2           2             1    1     1       0.7955179043E-02       1    5    1         0.1224348718E-03      0.2040961262E-02
          0                 3           2             1    1     1      -0.6711277300E-03       1    5    1        -0.1101995610E-04      0.1839809091E-03
          0                 4           1             1    1     1       0.4991991027E-04       4    3    1         0.8829622509E-06      0.1518861433E-04
          0                 5           1             3    1     1      -0.2987162591E-05       9    4    1         0.6712438605E-07      0.1065663483E-05
          0                 6           1             1    1     1       0.1503867166E-06       9    4    1        -0.5630980127E-08      0.6580051631E-07

    ------------------------------------------------
       NWT REQUIRED            6 OUTER ITERATIONS 
       AND A TOTAL OF         10 INNER ITERATIONS.
    ------------------------------------------------

 NO OUTPUT CONTROL FOR STRESS PERIOD   38   TIME STEP   29
 
 WELLS WITH REDUCED PUMPING FOR STRESS PERIOD    38 TIME STEP    29
   LAY   ROW   COL         APPL.Q          ACT.Q        GW-HEAD       CELL-BOT
     1     3    50  -0.115001E+01  -0.343859E+00   0.406045E+01   0.000000E+00
     1     5    55  -0.115001E+01  -0.263889E+00   0.344747E+01   0.000000E+00
 
 
 SOLVING FOR HEAD 
                                                   Max.-Head-Change                         Max.-Flux-Residual
  Residual-Control   Outer-Iter.   Inner-Iter.     Column Row Layer    Maximum-Head-Change  Column Row Layer    Maximum-Flux-Residual          L2-NORM 
          0                 1           3             1    1     1      -0.9291292753E-01       1    5    1        -0.1223788604E-02      0.2087907458E-01
          0                 2           2             1    1     1       0.8740109140E-02       1    5    1         0.1223701440E-03      0.2030996776E-02
          0                 3           2             1    1     1      -0.7370030522E-03       1    5    1        -0.1101420528E-04      0.1832399091E-03
          0                 4           1             1    1     1       0.5469859604E-04       4    3    1         0.8832830538E-06      0.1513856739E-04
          0                 5           1             3    1     1      -0.3184271833E-05       9    4    1         0.6858030233E-07      0.1048994365E-05
          0                 6           1             1    1     1       0.1551418558E-06       9    4    1        -0.5723755692E-08      0.6435184689E-07

    ------------------------------------------------
       NWT REQUIRED            6 OUTER ITERATIONS 
       AND A TOTAL OF         10 INNER ITERATIONS.
    ------------------------------------------------

 NO OUTPUT CONTROL FOR STRESS PERIOD   38   TIME STEP   30
 
 WELLS WITH REDUCED PUMPING FOR STRESS PERIOD    38 TIME STEP    30
   LAY   ROW   COL         APPL.Q          ACT.Q        GW-HEAD       CELL-BOT
     1     3    50  -0.115005E+01  -0.342270E+00   0.404921E+01   0.000000E+00
     1     5    55  -0.115005E+01  -0.262602E+00   0.343773E+01   0.000000E+00
 



 STREAM LISTING     PERIOD     38   STEP       30

 LAYER ROW COL. STREAM  RCH.   FLOW INTO    STREAM     FLOW OUT OF   OVRLND.    DIRECT     STREAM      STREAM      STREAM     STREAM  STREAMBED   FLOW TO   CHNG. UNSAT. 
                SEG.NO.  NO.   STRM. RCH.    LOSS       STRM. RCH.   RUNOFF     PRECIP       ET         HEAD        DEPTH      WIDTH  CONDCTNC.   WAT. TAB.

   1    4    1     1     1    3.7300E+00  1.3771E-03   3.7286E+00  0.000E+00  0.000E+00  0.000E+00  1.41299E+02  1.449E+00  3.546E+00  7.065E-04  1.351E-04  1.242E-03
   1    4    2     1     2    3.7286E+00  1.3767E-03   3.7272E+00  0.000E+00  0.000E+00  0.000E+00  1.40999E+02  1.449E+00  3.546E+00  7.064E-04  1.336E-04  1.243E-03
   1    4    3     1     3    3.7272E+00  1.3764E-03   3.7259E+00  0.000E+00  0.000E+00  0.000E+00  1.40699E+02  1.449E+00  3.546E+00  7.063E-04  1.324E-04  1.244E-03
   1    4    4     1     4    3.7259E+00  1.3760E-03   3.7245E+00  0.000E+00  0.000E+00  0.000E+00  1.40398E+02  1.448E+00  3.545E+00  7.062E-04  1.315E-04  1.245E-03
   1    4    5     1     5    3.7245E+00  1.3756E-03   3.7231E+00  0.000E+00  0.000E+00  0.000E+00  1.40098E+02  1.448E+00  3.545E+00  7.062E-04  1.308E-04  1.245E-03
   1    4    6     1     6    3.7231E+00  1.3752E-03   3.7217E+00  0.000E+00  0.000E+00  0.000E+00  1.39798E+02  1.448E+00  3.545E+00  7.061E-04  1.304E-04  1.245E-03
   1    4    7     1     7    3.7217E+00  1.3749E-03   3.7204E+00  0.000E+00  0.000E+00  0.000E+00  1.39497E+02  1.447E+00  3.544E+00  7.060E-04  1.302E-04  1.245E-03
   1    4    8     1     8    3.7204E+00  1.3745E-03   3.7190E+00  0.000E+00  0.000E+00  0.000E+00  1.39197E+02  1.447E+00  3.544E+00  7.059E-04  1.303E-04  1.244E-03
   1    4    9     1     9    3.7190E+00  1.3741E-03   3.7176E+00  0.000E+00  0.000E+00  0.000E+00  1.38897E+02  1.447E+00  3.544E+00  7.058E-04  1.307E-04  1.243E-03
   1    4   10     1    10    3.7176E+00  1.3737E-03   3.7162E+00  0.000E+00  0.000E+00  0.000E+00  1.38597E+02  1.447E+00  3.543E+00  7.057E-04  1.314E-04  1.242E-03
   1    4   11     1    11    3.7162E+00  1.3734E-03   3.7149E+00  0.000E+00  0.000E+00  0.000E+00  1.38296E+02  1.446E+00  3.543E+00  7.056E-04  1.323E-04  1.241E-03
   1    4   12     1    12    3.7149E+00  1.3730E-03   3.7135E+00  0.000E+00  0.000E+00  0.000E+00  1.37996E+02  1.446E+00  3.543E+00  7.055E-04  1.336E-04  1.239E-03
   1    4   13     1    13    3.7135E+00  1.3726E-03   3.7121E+00  0.000E+00  0.000E+00  0.000E+00  1.37696E+02  1.446E+00  3.542E+00  7.054E-04  1.351E-04  1.238E-03
   1    4   14     1    14    3.7121E+00  1.3723E-03   3.7108E+00  0.000E+00  0.000E+00  0.000E+00  1.37396E+02  1.446E+00  3.542E+00  7.053E-04  1.361E-04  1.236E-03
   1    4   15     1    15    3.7108E+00  1.3719E-03   3.7094E+00  0.000E+00  0.000E+00  0.000E+00  1.37095E+02  1.445E+00  3.542E+00  7.052E-04  1.359E-04  1.236E-03
   1    4   16     1    16    3.7094E+00  1.3715E-03   3.7080E+00  0.000E+00  0.000E+00  0.000E+00  1.36795E+02  1.445E+00  3.541E+00  7.052E-04  1.358E-04  1.236E-03
   1    4   17     1    17    3.7080E+00  1.3711E-03   3.7066E+00  0.000E+00  0.000E+00  0.000E+00  1.36495E+02  1.445E+00  3.541E+00  7.051E-04  1.377E-04  1.233E-03
   1    4   18     1    18    3.7066E+00  1.3708E-03   3.7053E+00  0.000E+00  0.000E+00  0.000E+00  1.36194E+02  1.444E+00  3.541E+00  7.050E-04  1.403E-04  1.231E-03
   1    4   19     1    19    3.7053E+00  1.3704E-03   3.7039E+00  0.000E+00  0.000E+00  0.000E+00  1.35894E+02  1.444E+00  3.540E+00  7.049E-04  1.431E-04  1.227E-03
   1    4   20     1    20    3.7039E+00  1.3700E-03   3.7025E+00  0.000E+00  0.000E+00  0.000E+00  1.35594E+02  1.444E+00  3.540E+00  7.048E-04  1.445E-04  1.225E-03
   1    4   21     1    21    3.7025E+00  1.3697E-03   3.7012E+00  0.000E+00  0.000E+00  0.000E+00  1.35294E+02  1.444E+00  3.540E+00  7.047E-04  1.463E-04  1.223E-03
   1    4   22     1    22    3.7012E+00  1.3693E-03   3.6998E+00  0.000E+00  0.000E+00  0.000E+00  1.34993E+02  1.443E+00  3.539E+00  7.046E-04  1.494E-04  1.220E-03
   1    4   23     1    23    3.6998E+00  1.3689E-03   3.6984E+00  0.000E+00  0.000E+00  0.000E+00  1.34693E+02  1.443E+00  3.539E+00  7.045E-04  1.524E-04  1.216E-03
   1    4   24     1    24    3.6984E+00  1.3685E-03   3.6971E+00  0.000E+00  0.000E+00  0.000E+00  1.34393E+02  1.443E+00  3.539E+00  7.044E-04  1.551E-04  1.213E-03
   1    4   25     1    25    3.6971E+00  1.3682E-03   3.6957E+00  0.000E+00  0.000E+00  0.000E+00  1.34092E+02  1.442E+00  3.538E+00  7.043E-04  1.585E-04  1.210E-03
   1    4   26     1    26    3.6957E+00  1.3678E-03   3.6943E+00  0.000E+00  0.000E+00  0.000E+00  1.33792E+02  1.442E+00  3.538E+00  7.043E-04  1.619E-04  1.206E-03
   1    4   27     1    27    3.6943E+00  1.3674E-03   3.6929E+00  0.000E+00  0.000E+00  0.000E+00  1.33492E+02  1.442E+00  3.538E+00  7.042E-04  1.660E-04  1.201E-03
   1    4   28     1    28    3.6929E+00  1.3671E-03   3.6916E+00  0.000E+00  0.000E+00  0.000E+00  1.33192E+02  1.442E+00  3.537E+00  7.041E-04  1.681E-04  1.199E-03
   1    4   29     1    29    3.6916E+00  1.3667E-03   3.6902E+00  0.000E+00  0.000E+00  0.000E+00  1.32891E+02  1.441E+00  3.537E+00  7.040E-04  1.687E-04  1.198E-03
   1    4   30     1    30    3.6902E+00  1.3663E-03   3.6888E+00  0.000E+00  0.000E+00  0.000E+00  1.32591E+02  1.441E+00  3.537E+00  7.039E-04  1.691E-04  1.197E-03
   1    4   31     1    31    3.6888E+00  1.3659E-03   3.6875E+00  0.000E+00  0.000E+00  0.000E+00  1.32291E+02  1.441E+00  3.536E+00  7.038E-04  1.695E-04  1.196E-03
   1    4   32     1    32    3.6875E+00  1.3656E-03   3.6861E+00  0.000E+00  0.000E+00  0.000E+00  1.31991E+02  1.441E+00  3.536E+00  7.037E-04  1.700E-04  1.196E-03
   1    4   33     1    33    3.6861E+00  1.3652E-03   3.6848E+00  0.000E+00  0.000E+00  0.000E+00  1.31690E+02  1.440E+00  3.536E+00  7.036E-04  1.706E-04  1.195E-03
   1    4   34     1    34    3.6848E+00  1.3648E-03   3.6834E+00  0.000E+00  0.000E+00  0.000E+00  1.31390E+02  1.440E+00  3.535E+00  7.035E-04  1.712E-04  1.194E-03
   1    4   35     1    35    3.6834E+00  1.3645E-03   3.6820E+00  0.000E+00  0.000E+00  0.000E+00  1.31090E+02  1.440E+00  3.535E+00  7.034E-04  1.718E-04  1.193E-03
   1    4   36     1    36    3.6820E+00  1.3641E-03   3.6807E+00  0.000E+00  0.000E+00  0.000E+00  1.30789E+02  1.439E+00  3.535E+00  7.033E-04  1.725E-04  1.192E-03
   1    4   37     1    37    3.6807E+00  1.3637E-03   3.6793E+00  0.000E+00  0.000E+00  0.000E+00  1.30489E+02  1.439E+00  3.534E+00  7.033E-04  1.732E-04  1.190E-03
   1    4   38     1    38    3.6793E+00  1.3634E-03   3.6779E+00  0.000E+00  0.000E+00  0.000E+00  1.30189E+02  1.439E+00  3.534E+00  7.032E-04  1.740E-04  1.189E-03
   1    4   39     1    39    3.6779E+00  1.3630E-03   3.6766E+00  0.000E+00  0.000E+00  0.000E+00  1.29889E+02  1.439E+00  3.534E+00  7.031E-04  1.747E-04  1.188E-03
   1    4   40     1    40    3.6766E+00  1.3626E-03   3.6752E+00  0.000E+00  0.000E+00  0.000E+00  1.29588E+02  1.438E+00  3.533E+00  7.030E-04  1.755E-04  1.187E-03
   1    4   41     1    41    3.6752E+00  1.3622E-03   3.6738E+00  0.000E+00  0.000E+00  0.000E+00  1.29288E+02  1.438E+00  3.533E+00  7.029E-04  1.761E-04  1.186E-03
   1    4   42     1    42    3.6738E+00  1.3619E-03   3.6725E+00  0.000E+00  0.000E+00  0.000E+00  1.28988E+02  1.438E+00  3.533E+00  7.028E-04  1.767E-04  1.185E-03
   1    4   43     1    43    3.6725E+00  1.3615E-03   3.6711E+00  0.000E+00  0.000E+00  0.000E+00  1.28687E+02  1.437E+00  3.532E+00  7.027E-04  2.047E-04  1.157E-03
   1    4   44     1    44    3.6711E+00  1.3611E-03   3.6698E+00  0.000E+00  0.000E+00  0.000E+00  1.28387E+02  1.437E+00  3.532E+00  7.026E-04  2.052E-04  1.156E-03
   1    4   45     1    45    3.6698E+00  1.3608E-03   3.6684E+00  0.000E+00  0.000E+00  0.000E+00  1.28087E+02  1.437E+00  3.532E+00  7.025E-04  2.055E-04  1.155E-03
   1    4   46     1    46    3.6684E+00  1.3604E-03   3.6670E+00  0.000E+00  0.000E+00  0.000E+00  1.27787E+02  1.437E+00  3.531E+00  7.024E-04  2.562E-04  1.104E-03
   1    4   47     1    47    3.6670E+00  1.3600E-03   3.6657E+00  0.000E+00  0.000E+00  0.000E+00  1.27486E+02  1.436E+00  3.531E+00  7.024E-04  2.571E-04  1.103E-03
   1    4   48     1    48    3.6657E+00  1.3597E-03   3.6643E+00  0.000E+00  0.000E+00  0.000E+00  1.27186E+02  1.436E+00  3.531E+00  7.023E-04  2.678E-04  1.092E-03
   1    4   49     1    49    3.6643E+00  1.3593E-03   3.6630E+00  0.000E+00  0.000E+00  0.000E+00  1.26886E+02  1.436E+00  3.530E+00  7.022E-04  3.139E-04  1.045E-03
   1    4   50     1    50    3.6630E+00  1.3589E-03   3.6616E+00  0.000E+00  0.000E+00  0.000E+00  1.26586E+02  1.436E+00  3.530E+00  7.021E-04  3.519E-04  1.007E-03
   1    4   51     1    51    3.6616E+00  1.3585E-03   3.6602E+00  0.000E+00  0.000E+00  0.000E+00  1.26285E+02  1.435E+00  3.530E+00  7.020E-04  3.323E-04  1.026E-03
   1    4   52     1    52    3.6602E+00  1.3582E-03   3.6589E+00  0.000E+00  0.000E+00  0.000E+00  1.25985E+02  1.435E+00  3.529E+00  7.019E-04  3.233E-04  1.035E-03
   1    4   53     1    53    3.6589E+00  1.3578E-03   3.6575E+00  0.000E+00  0.000E+00  0.000E+00  1.25685E+02  1.435E+00  3.529E+00  7.018E-04  3.241E-04  1.034E-03
   1    4   54     1    54    3.6575E+00  1.3574E-03   3.6562E+00  0.000E+00  0.000E+00  0.000E+00  1.25384E+02  1.434E+00  3.529E+00  7.017E-04  3.341E-04  1.023E-03
   1    4   55     1    55    3.6562E+00  1.3571E-03   3.6548E+00  0.000E+00  0.000E+00  0.000E+00  1.25084E+02  1.434E+00  3.528E+00  7.016E-04  3.538E-04  1.003E-03
   1    4   56     1    56    3.6548E+00  1.3567E-03   3.6535E+00  0.000E+00  0.000E+00  0.000E+00  1.24784E+02  1.434E+00  3.528E+00  7.015E-04  3.254E-04  1.031E-03
   1    4   57     1    57    3.6535E+00  1.3563E-03   3.6521E+00  0.000E+00  0.000E+00  0.000E+00  1.24484E+02  1.434E+00  3.528E+00  7.015E-04  2.688E-04  1.088E-03
   1    4   58     1    58    3.6521E+00  1.3560E-03   3.6507E+00  0.000E+00  0.000E+00  0.000E+00  1.24183E+02  1.433E+00  3.527E+00  7.014E-04  2.476E-04  1.108E-03
   1    4   59     1    59    3.6507E+00  1.3556E-03   3.6494E+00  0.000E+00  0.000E+00  0.000E+00  1.23883E+02  1.433E+00  3.527E+00  7.013E-04  2.563E-04  1.099E-03
   1    4   60     1    60    3.6494E+00  1.3552E-03   3.6480E+00  0.000E+00  0.000E+00  0.000E+00  1.23583E+02  1.433E+00  3.527E+00  7.012E-04  2.553E-04  1.100E-03
   1    4   61     1    61    3.6480E+00  1.3549E-03   3.6467E+00  0.000E+00  0.000E+00  0.000E+00  1.23283E+02  1.433E+00  3.526E+00  7.011E-04  2.044E-04  1.150E-03
   1    4   62     1    62    3.6467E+00  1.3545E-03   3.6453E+00  0.000E+00  0.000E+00  0.000E+00  1.22982E+02  1.432E+00  3.526E+00  7.010E-04  2.036E-04  1.151E-03
   1    4   63     1    63    3.6453E+00  1.3541E-03   3.6440E+00  0.000E+00  0.000E+00  0.000E+00  1.22682E+02  1.432E+00  3.526E+00  7.009E-04  2.026E-04  1.151E-03
   1    4   64     1    64    3.6440E+00  1.3538E-03   3.6426E+00  0.000E+00  0.000E+00  0.000E+00  1.22382E+02  1.432E+00  3.525E+00  7.008E-04  1.813E-04  1.172E-03
   1    4   65     1    65    3.6426E+00  1.3534E-03   3.6413E+00  0.000E+00  0.000E+00  0.000E+00  1.22081E+02  1.431E+00  3.525E+00  7.007E-04  1.730E-04  1.180E-03
   1    4   66     1    66    3.6413E+00  1.3530E-03   3.6399E+00  0.000E+00  0.000E+00  0.000E+00  1.21781E+02  1.431E+00  3.525E+00  7.006E-04  1.721E-04  1.181E-03
   1    4   67     1    67    3.6399E+00  1.3527E-03   3.6386E+00  0.000E+00  0.000E+00  0.000E+00  1.21481E+02  1.431E+00  3.524E+00  7.005E-04  1.713E-04  1.181E-03
   1    4   68     1    68    3.6386E+00  1.3523E-03   3.6372E+00  0.000E+00  0.000E+00  0.000E+00  1.21181E+02  1.431E+00  3.524E+00  7.005E-04  1.705E-04  1.182E-03
   1    4   69     1    69    3.6372E+00  1.3519E-03   3.6359E+00  0.000E+00  0.000E+00  0.000E+00  1.20880E+02  1.430E+00  3.524E+00  7.004E-04  1.698E-04  1.182E-03
   1    4   70     1    70    3.6359E+00  1.3516E-03   3.6345E+00  0.000E+00  0.000E+00  0.000E+00  1.20580E+02  1.430E+00  3.523E+00  7.003E-04  1.693E-04  1.182E-03
   1    4   71     1    71    3.6345E+00  1.3512E-03   3.6331E+00  0.000E+00  0.000E+00  0.000E+00  1.20280E+02  1.430E+00  3.523E+00  7.002E-04  1.688E-04  1.182E-03
   1    4   72     1    72    3.6331E+00  1.3508E-03   3.6318E+00  0.000E+00  0.000E+00  0.000E+00  1.19979E+02  1.429E+00  3.523E+00  7.001E-04  1.684E-04  1.182E-03
   1    4   73     1    73    3.6318E+00  1.3505E-03   3.6304E+00  0.000E+00  0.000E+00  0.000E+00  1.19679E+02  1.429E+00  3.522E+00  7.000E-04  1.681E-04  1.182E-03
   1    4   74     1    74    3.6304E+00  1.3501E-03   3.6291E+00  0.000E+00  0.000E+00  0.000E+00  1.19379E+02  1.429E+00  3.522E+00  6.999E-04  1.679E-04  1.182E-03
   1    4   75     1    75    3.6291E+00  1.3497E-03   3.6277E+00  0.000E+00  0.000E+00  0.000E+00  1.19079E+02  1.429E+00  3.522E+00  6.998E-04  1.678E-04  1.182E-03
   1    4   76     1    76    3.6277E+00  1.3494E-03   3.6264E+00  0.000E+00  0.000E+00  0.000E+00  1.18778E+02  1.428E+00  3.521E+00  6.997E-04  1.678E-04  1.181E-03
   1    4   77     1    77    3.6264E+00  1.3490E-03   3.6250E+00  0.000E+00  0.000E+00  0.000E+00  1.18478E+02  1.428E+00  3.521E+00  6.996E-04  1.679E-04  1.181E-03
   1    4   78     1    78    3.6250E+00  1.3486E-03   3.6237E+00  0.000E+00  0.000E+00  0.000E+00  1.18178E+02  1.428E+00  3.521E+00  6.996E-04  1.676E-04  1.181E-03
   1    4   79     1    79    3.6237E+00  1.3483E-03   3.6224E+00  0.000E+00  0.000E+00  0.000E+00  1.17878E+02  1.428E+00  3.520E+00  6.995E-04  1.646E-04  1.184E-03
   1    4   80     1    80    3.6224E+00  1.3479E-03   3.6210E+00  0.000E+00  0.000E+00  0.000E+00  1.17577E+02  1.427E+00  3.520E+00  6.994E-04  1.608E-04  1.187E-03
   1    4   81     1    81    3.6210E+00  1.3475E-03   3.6197E+00  0.000E+00  0.000E+00  0.000E+00  1.17277E+02  1.427E+00  3.520E+00  6.993E-04  1.567E-04  1.191E-03
   1    4   82     1    82    3.6197E+00  1.3472E-03   3.6183E+00  0.000E+00  0.000E+00  0.000E+00  1.16977E+02  1.427E+00  3.519E+00  6.992E-04  1.540E-04  1.193E-03
   1    4   83     1    83    3.6183E+00  1.3468E-03   3.6170E+00  0.000E+00  0.000E+00  0.000E+00  1.16676E+02  1.426E+00  3.519E+00  6.991E-04  1.498E-04  1.197E-03
   1    4   84     1    84    3.6170E+00  1.3464E-03   3.6156E+00  0.000E+00  0.000E+00  0.000E+00  1.16376E+02  1.426E+00  3.519E+00  6.990E-04  1.470E-04  1.199E-03
   1    4   85     1    85    3.6156E+00  1.3461E-03   3.6143E+00  0.000E+00  0.000E+00  0.000E+00  1.16076E+02  1.426E+00  3.518E+00  6.989E-04  1.451E-04  1.201E-03
   1    4   86     1    86    3.6143E+00  1.3457E-03   3.6129E+00  0.000E+00  0.000E+00  0.000E+00  1.15776E+02  1.426E+00  3.518E+00  6.988E-04  1.404E-04  1.205E-03
   1    4   87     1    87    3.6129E+00  1.3453E-03   3.6116E+00  0.000E+00  0.000E+00  0.000E+00  1.15475E+02  1.425E+00  3.518E+00  6.987E-04  1.408E-04  1.205E-03
   1    4   88     1    88    3.6116E+00  1.3450E-03   3.6102E+00  0.000E+00  0.000E+00  0.000E+00  1.15175E+02  1.425E+00  3.517E+00  6.987E-04  3.225E-04  1.022E-03
   1    4   89     1    89    3.6102E+00  1.3446E-03   3.6089E+00  0.000E+00  0.000E+00  0.000E+00  1.14875E+02  1.425E+00  3.517E+00  6.986E-04  5.767E-04  7.679E-04
   1    4   90     1    90    3.6089E+00  1.3442E-03   3.6075E+00  0.000E+00  0.000E+00  0.000E+00  1.14575E+02  1.425E+00  3.517E+00  6.985E-04  8.206E-04  5.236E-04
   1    4   91     1    91    3.6075E+00  1.3439E-03   3.6062E+00  0.000E+00  0.000E+00  0.000E+00  1.14274E+02  1.424E+00  3.516E+00  6.984E-04  1.066E-03  2.779E-04
   1    4   92     1    92    3.6062E+00  1.3435E-03   3.6049E+00  0.000E+00  0.000E+00  0.000E+00  1.13974E+02  1.424E+00  3.516E+00  6.983E-04  1.309E-03  3.403E-05
   1    4   93     1    93    3.6049E+00  1.3431E-03   3.6035E+00  0.000E+00  0.000E+00  0.000E+00  1.13674E+02  1.424E+00  3.516E+00  6.982E-04  1.367E-03 -2.342E-05
   1    4   94     1    94    3.6035E+00  1.3428E-03   3.6022E+00  0.000E+00  0.000E+00  0.000E+00  1.13373E+02  1.423E+00  3.516E+00  6.981E-04  1.367E-03 -2.471E-05
   1    4   95     1    95    3.6022E+00  1.3424E-03   3.6008E+00  0.000E+00  0.000E+00  0.000E+00  1.13073E+02  1.423E+00  3.515E+00  6.980E-04  1.368E-03 -2.561E-05
   1    4   96     1    96    3.6008E+00  1.3420E-03   3.5995E+00  0.000E+00  0.000E+00  0.000E+00  1.12773E+02  1.423E+00  3.515E+00  6.979E-04  1.368E-03 -2.613E-05
   1    4   97     1    97    3.5995E+00  1.3417E-03   3.5981E+00  0.000E+00  0.000E+00  0.000E+00  1.12473E+02  1.423E+00  3.515E+00  6.978E-04  1.368E-03 -2.623E-05
   1    4   98     1    98    3.5981E+00  1.3413E-03   3.5968E+00  0.000E+00  0.000E+00  0.000E+00  1.12172E+02  1.422E+00  3.514E+00  6.978E-04  1.368E-03 -2.645E-05
   1    4   99     1    99    3.5968E+00  1.3409E-03   3.5955E+00  0.000E+00  0.000E+00  0.000E+00  1.11872E+02  1.422E+00  3.514E+00  6.977E-04  1.367E-03 -2.598E-05
   1    4  100     1   100    3.5955E+00  1.3406E-03   3.5941E+00  0.000E+00  0.000E+00  0.000E+00  1.11572E+02  1.422E+00  3.514E+00  6.976E-04  1.365E-03 -2.473E-05



1
  VOLUMETRIC BUDGET FOR UNSATURATED ZONE BENEATH STREAMS AT END OF TIME STEP    30 STRESS PERIOD  38
  ------------------------------------------------------------------------------------------------

    CUMULATIVE VOLUMES             L**3    RATES FOR THIS TIME STEP         L**3/T
    ------------------                     ------------------------


          STREAM LOSS =     30638162.0000            STREAM LOSS =            0.1359
    CHANGE IN STORAGE =      1197905.6250      CHANGE IN STORAGE =            0.1049
       RECHARGE TO GW =     29447264.0000         RECHARGE TO GW =        3.1001E-02

             TOTAL IN =     30638162.0000               TOTAL IN =            0.1359

            TOTAL OUT =     30645170.0000              TOTAL OUT =            0.1359

             IN - OUT =        -7008.0000               IN - OUT =        3.7253E-07

  PERCENT DISCREPANCY =           -0.01      PERCENT DISCREPANCY =             0.00



1
  VOLUMETRIC BUDGET FOR ENTIRE MODEL AT END OF TIME STEP   30, STRESS PERIOD  38
  ------------------------------------------------------------------------------

     CUMULATIVE VOLUMES      L**3       RATES FOR THIS TIME STEP      L**3/T
     ------------------                 ------------------------

           IN:                                      IN:
           ---                                      ---
             STORAGE     =   108940432.0000               STORAGE     =           0.4928
       CONSTANT HEAD     =           0.0000         CONSTANT HEAD     =           0.0000
               WELLS     =           0.0000                 WELLS     =           0.0000
     HEAD DEP BOUNDS     =     1445103.3750       HEAD DEP BOUNDS     =       8.1495E-02
      STREAM LEAKAGE     =    29447124.0000        STREAM LEAKAGE     =       3.1001E-02

                TOTAL IN =   139832656.0000                  TOTAL IN =           0.6053

          OUT:                                     OUT:
          ----                                     ----
             STORAGE     =     3382407.0000               STORAGE     =       4.0604E-04
       CONSTANT HEAD     =           0.0000         CONSTANT HEAD     =           0.0000
               WELLS     =   120064352.0000                 WELLS     =           0.6049
     HEAD DEP BOUNDS     =    16385952.0000       HEAD DEP BOUNDS     =           0.0000
      STREAM LEAKAGE     =           0.0000        STREAM LEAKAGE     =           0.0000

               TOTAL OUT =   139832704.0000                 TOTAL OUT =           0.6053

                IN - OUT =         -48.0000                  IN - OUT =      -5.9605E-08

     PERCENT DISCREPANCY =          -0.00         PERCENT DISCREPANCY =          -0.00






         TIME SUMMARY AT END OF TIME STEP   30 IN STRESS PERIOD   38
                    SECONDS     MINUTES      HOURS       DAYS        YEARS
                    -----------------------------------------------------------
   TIME STEP LENGTH 2.49961E+05  4166.0      69.434      2.8931     7.92080E-03
 STRESS PERIOD TIME 2.59200E+06  43200.      720.00      30.000     8.21355E-02
         TOTAL TIME 9.84960E+07 1.64160E+06  27360.      1140.0      3.1212    
1
1
                            STRESS PERIOD NO.   39, LENGTH =   2592000.    
                            -----------------------------------------------

                              NUMBER OF TIME STEPS =    30

                               MULTIPLIER FOR DELT =     1.100

                            INITIAL TIME STEP SIZE =   15757.40    

 REUSING NON-PARAMETER WELLS FROM LAST STRESS PERIOD

      1 WELL 

 REUSING NON-PARAMETER GHB CELLS FROM LAST STRESS PERIOD

      7 GHB CELLS



 CLASSIFICATION & COUNT OF STREAM SEGMENTS BASED ON SOURCE OF INFLOW:

                HEADWATER     DIVERSION     RECEIVES TRIBUTARY FLOW
                ---------     ---------     -----------------------
                     1              0               0



                    INPUT DATA FOR EACH STREAM SEGMENT
 ---------------------------------------------------------------------------------------------

 SEGMENT    SEG.     INFLOW   OVERLAND   STREAM    STREAM   ICALC  OUTFLOW  DIVERSION PRIORITY
    NO.    LENGTH     RATE     RUNOFF      ET       PPT.    METH.  TO SEG.  FROM SEG.    NO.

      1  2.000E+04 3.000E+00 0.000E+00 0.000E+00 0.000E+00    2        0        0        0


         STREAMBED PROPERTIES AND STREAM DIMENSIONS

 SEGMENT     BED HYD. COND.      BED THICKNESS     ELEV.-TOP OF BED     WIDTH OF STREAM     DEPTH OF STREAM    STREAM ROUGHNESS
    No.     UPPER     LOWER     UPPER     LOWER     UPPER     LOWER     UPPER     LOWER     UPPER     LOWER   CHANNEL      BANK

     1  3.500E-07 3.500E-07                                                                                 3.000E-02 4.000E-02

  EIGHT POINT CROSS-SECTION DATA FOR SEGMENTS WITH ICALC = 2
    X VALUES X VALUES START FROM LEFT SIDE LOOKING DOWNSTREAM

     SEGMENT NO.        X1        X2        X3        X4        X5        X6        X7        X8
            1      0.000E+00 2.000E+00 4.000E+00 6.000E+00 8.000E+00 1.000E+01 1.200E+01 1.400E+01

    Z VALUES ARE RELATIVE TO STREAMBED ELEVATION

     SEGMENT NO.          Z1        Z2        Z3        Z4        Z5        Z6        Z7        Z8
            1      6.000E+00 4.500E+00 3.500E+00 0.000E+00 3.000E-01 3.500E+00 4.500E+00 6.000E+00



 
 SOLVING FOR HEAD 
                                                   Max.-Head-Change                         Max.-Flux-Residual
  Residual-Control   Outer-Iter.   Inner-Iter.     Column Row Layer    Maximum-Head-Change  Column Row Layer    Maximum-Flux-Residual          L2-NORM 
          0                 1           2            50    3     1      -0.2381850131E+00      50    3    1        -0.9843336794E-01      0.1257881942E+00
          0                 2           2            50    3     1       0.2233450402E-01      50    3    1         0.9239818996E-02      0.1178682619E-01
          0                 3           2            50    3     1      -0.2000381285E-02      50    3    1        -0.8373282556E-03      0.1068284515E-02
          0                 4           2            50    3     1       0.1585084766E-03      50    3    1         0.6702443691E-04      0.8555225365E-04
          0                 5           1            50    3     1      -0.1103371948E-04      50    3    1        -0.4712038492E-05      0.6017998931E-05
          0                 6           1            50    3     1       0.6621771716E-06      50    3    1         0.2855294052E-06      0.3648528593E-06

    ------------------------------------------------
       NWT REQUIRED            6 OUTER ITERATIONS 
       AND A TOTAL OF         10 INNER ITERATIONS.
    ------------------------------------------------

 NO OUTPUT CONTROL FOR STRESS PERIOD   39   TIME STEP    1
 
 WELLS WITH REDUCED PUMPING FOR STRESS PERIOD    39 TIME STEP     1
   LAY   ROW   COL         APPL.Q          ACT.Q        GW-HEAD       CELL-BOT
     1     3    50  -0.148024E+01  -0.401179E+00   0.383151E+01   0.000000E+00
     1     5    55  -0.148024E+01  -0.308708E+00   0.326401E+01   0.000000E+00
 
 
 SOLVING FOR HEAD 
                                                   Max.-Head-Change                         Max.-Flux-Residual
  Residual-Control   Outer-Iter.   Inner-Iter.     Column Row Layer    Maximum-Head-Change  Column Row Layer    Maximum-Flux-Residual          L2-NORM 
          0                 1           2            50    3     1      -0.1302068280E+00      50    3    1        -0.4973779142E-01      0.6722134803E-01
          0                 2           2            50    3     1       0.1238292575E-01      50    3    1         0.4767567999E-02      0.6431690926E-02
          0                 3           2            50    3     1      -0.1103572724E-02      50    3    1        -0.4310119502E-03      0.5809934255E-03
          0                 4           1            50    3     1       0.8727062803E-04      50    3    1         0.3450889115E-04      0.4657287697E-04
          0                 5           1            50    3     1      -0.6064751584E-05      50    3    1        -0.2426030612E-05      0.3279907173E-05
          0                 6           1            50    3     1       0.3635472552E-06      50    3    1         0.1470070897E-06      0.1990997034E-06

    ------------------------------------------------
       NWT REQUIRED            6 OUTER ITERATIONS 
       AND A TOTAL OF          9 INNER ITERATIONS.
    ------------------------------------------------

 NO OUTPUT CONTROL FOR STRESS PERIOD   39   TIME STEP    2
 
 WELLS WITH REDUCED PUMPING FOR STRESS PERIOD    39 TIME STEP     2
   LAY   ROW   COL         APPL.Q          ACT.Q        GW-HEAD       CELL-BOT
     1     3    50  -0.148024E+01  -0.380130E+00   0.371266E+01   0.000000E+00
     1     5    55  -0.148024E+01  -0.292487E+00   0.316547E+01   0.000000E+00
 
 
 SOLVING FOR HEAD 
                                                   Max.-Head-Change                         Max.-Flux-Residual
  Residual-Control   Outer-Iter.   Inner-Iter.     Column Row Layer    Maximum-Head-Change  Column Row Layer    Maximum-Flux-Residual          L2-NORM 
          0                 1           2            50    3     1      -0.7031131831E-01      50    3    1        -0.2457225730E-01      0.3892540354E-01
          0                 2           2            50    3     1       0.6746064125E-02      50    3    1         0.2392446234E-02      0.3765812309E-02
          0                 3           2            50    3     1      -0.5975095966E-03      50    3    1        -0.2159273453E-03      0.3386614744E-03
          0                 4           1            50    3     1       0.4708337374E-04      50    3    1         0.1729106387E-04      0.2719226132E-04
          0                 5           1            50    3     1      -0.3262776040E-05      50    3    1        -0.1215564429E-05      0.1920821618E-05
          0                 6           1            50    3     1       0.1951878420E-06      50    3    1         0.7365766633E-07      0.1169953793E-06

    ------------------------------------------------
       NWT REQUIRED            6 OUTER ITERATIONS 
       AND A TOTAL OF          9 INNER ITERATIONS.
    ------------------------------------------------

 NO OUTPUT CONTROL FOR STRESS PERIOD   39   TIME STEP    3
 
 WELLS WITH REDUCED PUMPING FOR STRESS PERIOD    39 TIME STEP     3
   LAY   ROW   COL         APPL.Q          ACT.Q        GW-HEAD       CELL-BOT
     1     3    50  -0.147981E+01  -0.368803E+00   0.364855E+01   0.000000E+00
     1     5    55  -0.147981E+01  -0.283473E+00   0.311043E+01   0.000000E+00
 
 
 SOLVING FOR HEAD 
                                                   Max.-Head-Change                         Max.-Flux-Residual
  Residual-Control   Outer-Iter.   Inner-Iter.     Column Row Layer    Maximum-Head-Change  Column Row Layer    Maximum-Flux-Residual          L2-NORM 
          0                 1           2            50    3     1      -0.3887247102E-01      50    3    1        -0.1220505189E-01      0.2748492860E-01
          0                 2           2            50    3     1       0.3732454652E-02      50    3    1         0.1200322452E-02      0.2662147586E-02
          0                 3           2            50    3     1      -0.3282422646E-03      50    3    1        -0.1082189676E-03      0.2385774215E-03
          0                 4           1            50    3     1       0.2573909312E-04      50    3    1         0.8666875817E-05      0.1921559258E-04
          0                 5           1            50    3     1      -0.1776765691E-05      50    3    1        -0.6092714676E-06      0.1364417622E-05
          0                 6           1            50    3     1       0.1059862356E-06      50    3    1         0.3691874634E-07      0.8357680475E-07

    ------------------------------------------------
       NWT REQUIRED            6 OUTER ITERATIONS 
       AND A TOTAL OF          9 INNER ITERATIONS.
    ------------------------------------------------

 NO OUTPUT CONTROL FOR STRESS PERIOD   39   TIME STEP    4
 
 WELLS WITH REDUCED PUMPING FOR STRESS PERIOD    39 TIME STEP     4
   LAY   ROW   COL         APPL.Q          ACT.Q        GW-HEAD       CELL-BOT
     1     3    50  -0.148020E+01  -0.362744E+00   0.361310E+01   0.000000E+00
     1     5    55  -0.148020E+01  -0.278527E+00   0.307921E+01   0.000000E+00
 
 
 SOLVING FOR HEAD 
                                                   Max.-Head-Change                         Max.-Flux-Residual
  Residual-Control   Outer-Iter.   Inner-Iter.     Column Row Layer    Maximum-Head-Change  Column Row Layer    Maximum-Flux-Residual          L2-NORM 
          0                 1           2            50    4     1      -0.2508782228E-01      50    3    1        -0.6058848156E-02      0.2352117998E-01
          0                 2           2            50    2     1       0.2320176424E-02      50    3    1         0.5998055119E-03      0.2276373299E-02
          0                 3           2            50    2     1      -0.2065569409E-03      50    3    1        -0.5404062809E-04      0.2039005888E-03
          0                 4           1            50    2     1       0.1637121393E-04      50    3    1         0.4328207808E-05      0.1647656840E-04
          0                 5           1            50    2     1      -0.1139218967E-05      50    3    1        -0.3042628485E-06      0.1175461001E-05
          0                 6           1            50    2     1       0.6835388122E-07      50    3    1         0.1843656428E-07      0.7236702109E-07

    ------------------------------------------------
       NWT REQUIRED            6 OUTER ITERATIONS 
       AND A TOTAL OF          9 INNER ITERATIONS.
    ------------------------------------------------

 NO OUTPUT CONTROL FOR STRESS PERIOD   39   TIME STEP    5
 
 WELLS WITH REDUCED PUMPING FOR STRESS PERIOD    39 TIME STEP     5
   LAY   ROW   COL         APPL.Q          ACT.Q        GW-HEAD       CELL-BOT
     1     3    50  -0.148010E+01  -0.359218E+00   0.359287E+01   0.000000E+00
     1     5    55  -0.148010E+01  -0.275615E+00   0.306114E+01   0.000000E+00
 
 
 SOLVING FOR HEAD 
                                                   Max.-Head-Change                         Max.-Flux-Residual
  Residual-Control   Outer-Iter.   Inner-Iter.     Column Row Layer    Maximum-Head-Change  Column Row Layer    Maximum-Flux-Residual          L2-NORM 
          0                 1           2            50    2     1      -0.2160921726E-01      50    2    1        -0.3334974102E-02      0.2221375501E-01
          0                 2           2            50    2     1       0.2132741923E-02      50    2    1         0.3329114560E-03      0.2151654699E-02
          0                 3           2            50    2     1      -0.1898605055E-03      50    2    1        -0.2996794574E-04      0.1929825677E-03
          0                 4           1            50    2     1       0.1504700366E-04      50    2    1         0.2400385022E-05      0.1563730680E-04
          0                 5           1            50    2     1      -0.1047023530E-05      50    2    1        -0.1687450447E-06      0.1119335997E-05
          0                 6           1            50    2     1       0.6281967813E-07      50    2    1         0.1022528137E-07      0.6915304105E-07

    ------------------------------------------------
       NWT REQUIRED            6 OUTER ITERATIONS 
       AND A TOTAL OF          9 INNER ITERATIONS.
    ------------------------------------------------

 NO OUTPUT CONTROL FOR STRESS PERIOD   39   TIME STEP    6
 
 WELLS WITH REDUCED PUMPING FOR STRESS PERIOD    39 TIME STEP     6
   LAY   ROW   COL         APPL.Q          ACT.Q        GW-HEAD       CELL-BOT
     1     3    50  -0.147991E+01  -0.357027E+00   0.358043E+01   0.000000E+00
     1     5    55  -0.147991E+01  -0.273810E+00   0.305005E+01   0.000000E+00
 
 
 SOLVING FOR HEAD 
                                                   Max.-Head-Change                         Max.-Flux-Residual
  Residual-Control   Outer-Iter.   Inner-Iter.     Column Row Layer    Maximum-Head-Change  Column Row Layer    Maximum-Flux-Residual          L2-NORM 
          0                 1           2            50    2     1      -0.1974621988E-01      50    2    1        -0.2787863974E-02      0.2174509487E-01
          0                 2           2            50    2     1       0.1948147264E-02      50    2    1         0.2782155604E-03      0.2108584168E-02
          0                 3           2            50    2     1      -0.1734152065E-03      50    2    1        -0.2504512005E-04      0.1893418310E-03
          0                 4           1            50    2     1       0.1374289768E-04      50    2    1         0.2006068391E-05      0.1536912039E-04
          0                 5           1            50    2     1      -0.9562381620E-06      50    2    1        -0.1410249554E-06      0.1102513503E-05

    ------------------------------------------------
       NWT REQUIRED            5 OUTER ITERATIONS 
       AND A TOTAL OF          8 INNER ITERATIONS.
    ------------------------------------------------

 NO OUTPUT CONTROL FOR STRESS PERIOD   39   TIME STEP    7
 
 WELLS WITH REDUCED PUMPING FOR STRESS PERIOD    39 TIME STEP     7
   LAY   ROW   COL         APPL.Q          ACT.Q        GW-HEAD       CELL-BOT
     1     3    50  -0.147983E+01  -0.355533E+00   0.357188E+01   0.000000E+00
     1     5    55  -0.147983E+01  -0.272597E+00   0.304254E+01   0.000000E+00
 
 
 SOLVING FOR HEAD 
                                                   Max.-Head-Change                         Max.-Flux-Residual
  Residual-Control   Outer-Iter.   Inner-Iter.     Column Row Layer    Maximum-Head-Change  Column Row Layer    Maximum-Flux-Residual          L2-NORM 
          0                 1           2            50    2     1      -0.1811915725E-01      50    2    1        -0.2316004198E-02      0.2148056794E-01
          0                 2           2            50    2     1       0.1786654800E-02      50    2    1         0.2311194596E-03      0.2085125870E-02
          0                 3           2            50    2     1      -0.1589686962E-03      50    2    1        -0.2080557282E-04      0.1875827301E-03
          0                 4           1            50    2     1       0.1259534987E-04      50    2    1         0.1666487788E-05      0.1526548876E-04
          0                 5           1            50    2     1      -0.8763429039E-06      50    2    1        -0.1171527233E-06      0.1098109124E-05

    ------------------------------------------------
       NWT REQUIRED            5 OUTER ITERATIONS 
       AND A TOTAL OF          8 INNER ITERATIONS.
    ------------------------------------------------

 NO OUTPUT CONTROL FOR STRESS PERIOD   39   TIME STEP    8
 
 WELLS WITH REDUCED PUMPING FOR STRESS PERIOD    39 TIME STEP     8
   LAY   ROW   COL         APPL.Q          ACT.Q        GW-HEAD       CELL-BOT
     1     3    50  -0.147987E+01  -0.354402E+00   0.356526E+01   0.000000E+00
     1     5    55  -0.147987E+01  -0.271698E+00   0.303684E+01   0.000000E+00
 
 
 SOLVING FOR HEAD 
                                                   Max.-Head-Change                         Max.-Flux-Residual
  Residual-Control   Outer-Iter.   Inner-Iter.     Column Row Layer    Maximum-Head-Change  Column Row Layer    Maximum-Flux-Residual          L2-NORM 
          0                 1           2            50    2     1      -0.1679136809E-01      50    2    1        -0.1932067974E-02      0.2122663610E-01
          0                 2           2            50    2     1       0.1653677139E-02      50    2    1         0.1928253873E-03      0.2082377372E-02
          0                 3           2            50    2     1      -0.1470539489E-03      50    2    1        -0.1735814178E-04      0.1889392374E-03
          0                 4           1            50    2     1       0.1165035767E-04      50    2    1         0.1390356212E-05      0.1546421008E-04
          0                 5           1            50    2     1      -0.8107235770E-06      50    2    1        -0.9774089198E-07      0.1115762847E-05

    ------------------------------------------------
       NWT REQUIRED            5 OUTER ITERATIONS 
       AND A TOTAL OF          8 INNER ITERATIONS.
    ------------------------------------------------

 NO OUTPUT CONTROL FOR STRESS PERIOD   39   TIME STEP    9
 
 WELLS WITH REDUCED PUMPING FOR STRESS PERIOD    39 TIME STEP     9
   LAY   ROW   COL         APPL.Q          ACT.Q        GW-HEAD       CELL-BOT
     1     3    50  -0.147994E+01  -0.353457E+00   0.355966E+01   0.000000E+00
     1     5    55  -0.147994E+01  -0.270956E+00   0.303209E+01   0.000000E+00
 
 
 SOLVING FOR HEAD 
                                                   Max.-Head-Change                         Max.-Flux-Residual
  Residual-Control   Outer-Iter.   Inner-Iter.     Column Row Layer    Maximum-Head-Change  Column Row Layer    Maximum-Flux-Residual          L2-NORM 
          0                 1           2            50    1     1      -0.1665557583E-01      50    2    1        -0.1627905384E-02      0.2066184168E-01
          0                 2           2            50    1     1       0.1647888308E-02      50    2    1         0.1624936697E-03      0.2027712273E-02
          0                 3           2            50    1     1      -0.1468755844E-03      50    2    1        -0.1462743871E-04      0.1843664571E-03
          0                 4           1            50    1     1       0.1165299091E-04      50    2    1         0.1171633690E-05      0.1513605886E-04
          0                 5           1            50    1     1      -0.8114396202E-06       2    4    1         0.8900565263E-07      0.1095511074E-05

    ------------------------------------------------
       NWT REQUIRED            5 OUTER ITERATIONS 
       AND A TOTAL OF          8 INNER ITERATIONS.
    ------------------------------------------------

 NO OUTPUT CONTROL FOR STRESS PERIOD   39   TIME STEP   10
 
 WELLS WITH REDUCED PUMPING FOR STRESS PERIOD    39 TIME STEP    10
   LAY   ROW   COL         APPL.Q          ACT.Q        GW-HEAD       CELL-BOT
     1     3    50  -0.147987E+01  -0.352602E+00   0.355478E+01   0.000000E+00
     1     5    55  -0.147987E+01  -0.270287E+00   0.302795E+01   0.000000E+00
 
 
 SOLVING FOR HEAD 
                                                   Max.-Head-Change                         Max.-Flux-Residual
  Residual-Control   Outer-Iter.   Inner-Iter.     Column Row Layer    Maximum-Head-Change  Column Row Layer    Maximum-Flux-Residual          L2-NORM 
          0                 1           2            50    1     1      -0.1693203506E-01      50    1    1        -0.1467300704E-02      0.2027038058E-01
          0                 2           2            50    1     1       0.1674764114E-02      50    1    1         0.1466247856E-03      0.1980308363E-02
          0                 3           2            50    1     1      -0.1492556923E-03      50    1    1        -0.1319728657E-04      0.1798689931E-03
          0                 4           1            50    1     1       0.1184073171E-04      15    4    1        -0.1085953915E-05      0.1479262844E-04
          0                 5           1            50    1     1      -0.8243990217E-06      15    4    1         0.8818130581E-07      0.1074047060E-05

    ------------------------------------------------
       NWT REQUIRED            5 OUTER ITERATIONS 
       AND A TOTAL OF          8 INNER ITERATIONS.
    ------------------------------------------------

 NO OUTPUT CONTROL FOR STRESS PERIOD   39   TIME STEP   11
 
 WELLS WITH REDUCED PUMPING FOR STRESS PERIOD    39 TIME STEP    11
   LAY   ROW   COL         APPL.Q          ACT.Q        GW-HEAD       CELL-BOT
     1     3    50  -0.148005E+01  -0.351837E+00   0.355008E+01   0.000000E+00
     1     5    55  -0.148005E+01  -0.269690E+00   0.302398E+01   0.000000E+00
 
 
 SOLVING FOR HEAD 
                                                   Max.-Head-Change                         Max.-Flux-Residual
  Residual-Control   Outer-Iter.   Inner-Iter.     Column Row Layer    Maximum-Head-Change  Column Row Layer    Maximum-Flux-Residual          L2-NORM 
          0                 1           2            50    1     1      -0.1706548601E-01      50    1    1        -0.1356088022E-02      0.2001892952E-01
          0                 2           2            50    1     1       0.1687422213E-02      50    1    1         0.1354914700E-03      0.1952885187E-02
          0                 3           2            50    1     1      -0.1503601389E-03      50    1    1        -0.1219540679E-04      0.1774264119E-03
          0                 4           1            50    1     1       0.1192685438E-04      17    4    1        -0.1119499725E-05      0.1461996252E-04
          0                 5           1            50    1     1      -0.8302397912E-06      17    4    1         0.9097206188E-07      0.1064531047E-05

    ------------------------------------------------
       NWT REQUIRED            5 OUTER ITERATIONS 
       AND A TOTAL OF          8 INNER ITERATIONS.
    ------------------------------------------------

 NO OUTPUT CONTROL FOR STRESS PERIOD   39   TIME STEP   12
 
 WELLS WITH REDUCED PUMPING FOR STRESS PERIOD    39 TIME STEP    12
   LAY   ROW   COL         APPL.Q          ACT.Q        GW-HEAD       CELL-BOT
     1     3    50  -0.148008E+01  -0.351080E+00   0.354563E+01   0.000000E+00
     1     5    55  -0.148008E+01  -0.269100E+00   0.302023E+01   0.000000E+00
 
 
 SOLVING FOR HEAD 
                                                   Max.-Head-Change                         Max.-Flux-Residual
  Residual-Control   Outer-Iter.   Inner-Iter.     Column Row Layer    Maximum-Head-Change  Column Row Layer    Maximum-Flux-Residual          L2-NORM 
          0                 1           2            50    1     1      -0.1710444587E-01      50    1    1        -0.1242561829E-02      0.1980375873E-01
          0                 2           2            50    1     1       0.1690649372E-02      50    1    1         0.1241362863E-03      0.1931111671E-02
          0                 3           2            50    1     1      -0.1506064459E-03      19    4    1         0.1143005333E-04      0.1756759627E-03
          0                 4           1            50    1     1       0.1194422593E-04      19    4    1        -0.1143298116E-05      0.1451496790E-04
          0                 5           1            50    1     1      -0.8312424997E-06      19    4    1         0.9329401962E-07      0.1060336562E-05

    ------------------------------------------------
       NWT REQUIRED            5 OUTER ITERATIONS 
       AND A TOTAL OF          8 INNER ITERATIONS.
    ------------------------------------------------

 NO OUTPUT CONTROL FOR STRESS PERIOD   39   TIME STEP   13
 
 WELLS WITH REDUCED PUMPING FOR STRESS PERIOD    39 TIME STEP    13
   LAY   ROW   COL         APPL.Q          ACT.Q        GW-HEAD       CELL-BOT
     1     3    50  -0.148008E+01  -0.350340E+00   0.354132E+01   0.000000E+00
     1     5    55  -0.148008E+01  -0.268524E+00   0.301660E+01   0.000000E+00
 
 
 SOLVING FOR HEAD 
                                                   Max.-Head-Change                         Max.-Flux-Residual
  Residual-Control   Outer-Iter.   Inner-Iter.     Column Row Layer    Maximum-Head-Change  Column Row Layer    Maximum-Flux-Residual          L2-NORM 
          0                 1           2            23    7     1      -0.1819360203E-01      50    1    1        -0.1132219558E-02      0.1961718358E-01
          0                 2           2            23    7     1       0.1745388842E-02      50    1    1         0.1131059140E-03      0.1911853909E-02
          0                 3           2            23    7     1      -0.1509511419E-03      50    1    1        -0.1018069715E-04      0.1741277778E-03
          0                 4           1            50    1     1       0.1192397436E-04      21    4    1        -0.1055826175E-05      0.1442537821E-04
          0                 5           1            50    1     1      -0.8295327554E-06      21    4    1         0.8926524586E-07      0.1057232414E-05

    ------------------------------------------------
       NWT REQUIRED            5 OUTER ITERATIONS 
       AND A TOTAL OF          8 INNER ITERATIONS.
    ------------------------------------------------

 NO OUTPUT CONTROL FOR STRESS PERIOD   39   TIME STEP   14
 
 WELLS WITH REDUCED PUMPING FOR STRESS PERIOD    39 TIME STEP    14
   LAY   ROW   COL         APPL.Q          ACT.Q        GW-HEAD       CELL-BOT
     1     3    50  -0.148003E+01  -0.349604E+00   0.353708E+01   0.000000E+00
     1     5    55  -0.148003E+01  -0.267950E+00   0.301302E+01   0.000000E+00
 
 
 SOLVING FOR HEAD 
                                                   Max.-Head-Change                         Max.-Flux-Residual
  Residual-Control   Outer-Iter.   Inner-Iter.     Column Row Layer    Maximum-Head-Change  Column Row Layer    Maximum-Flux-Residual          L2-NORM 
          0                 1           2            25    7     1      -0.1961931329E-01      23    7    1        -0.1097786872E-02      0.1945131726E-01
          0                 2           2            25    7     1       0.1884051880E-02      23    7    1         0.1097650366E-03      0.1895782251E-02
          0                 3           2            25    7     1      -0.1629910574E-03      22    4    1         0.1164643312E-04      0.1728286553E-03
          0                 4           1            25    7     1       0.1256174965E-04      22    4    1        -0.1166213305E-05      0.1434743869E-04
          0                 5           1            25    7     1      -0.8500973575E-06      22    4    1         0.9561657066E-07      0.1054268769E-05

    ------------------------------------------------
       NWT REQUIRED            5 OUTER ITERATIONS 
       AND A TOTAL OF          8 INNER ITERATIONS.
    ------------------------------------------------

 NO OUTPUT CONTROL FOR STRESS PERIOD   39   TIME STEP   15
 
 WELLS WITH REDUCED PUMPING FOR STRESS PERIOD    39 TIME STEP    15
   LAY   ROW   COL         APPL.Q          ACT.Q        GW-HEAD       CELL-BOT
     1     3    50  -0.148003E+01  -0.348869E+00   0.353279E+01   0.000000E+00
     1     5    55  -0.148003E+01  -0.267376E+00   0.300939E+01   0.000000E+00
 
 
 SOLVING FOR HEAD 
                                                   Max.-Head-Change                         Max.-Flux-Residual
  Residual-Control   Outer-Iter.   Inner-Iter.     Column Row Layer    Maximum-Head-Change  Column Row Layer    Maximum-Flux-Residual          L2-NORM 
          0                 1           2            26    7     1      -0.2115646714E-01      25    7    1        -0.1076092144E-02      0.1927575980E-01
          0                 2           2            26    7     1       0.2022867827E-02      25    7    1         0.1075985239E-03      0.1877965369E-02
          0                 3           2            26    7     1      -0.1743535610E-03      24    4    1         0.1048289727E-04      0.1714176996E-03
          0                 4           1            27    7     1       0.1339419665E-04      24    4    1        -0.1097832101E-05      0.1426867764E-04
          0                 5           1            27    7     1      -0.9042642168E-06      24    4    1         0.9253314204E-07      0.1051758787E-05

    ------------------------------------------------
       NWT REQUIRED            5 OUTER ITERATIONS 
       AND A TOTAL OF          8 INNER ITERATIONS.
    ------------------------------------------------

 NO OUTPUT CONTROL FOR STRESS PERIOD   39   TIME STEP   16
 
 WELLS WITH REDUCED PUMPING FOR STRESS PERIOD    39 TIME STEP    16
   LAY   ROW   COL         APPL.Q          ACT.Q        GW-HEAD       CELL-BOT
     1     3    50  -0.148003E+01  -0.348122E+00   0.352843E+01   0.000000E+00
     1     5    55  -0.148003E+01  -0.266791E+00   0.300569E+01   0.000000E+00
 
 
 SOLVING FOR HEAD 
                                                   Max.-Head-Change                         Max.-Flux-Residual
  Residual-Control   Outer-Iter.   Inner-Iter.     Column Row Layer    Maximum-Head-Change  Column Row Layer    Maximum-Flux-Residual          L2-NORM 
          0                 1           2             4    1     1      -0.2272442849E-01      26    1    1        -0.1055323500E-02      0.1910541127E-01
          0                 2           2            28    7     1       0.2168370593E-02      26    7    1         0.1055145358E-03      0.1861660915E-02
          0                 3           2            28    7     1      -0.1868219048E-03      25    4    1         0.1145154344E-04      0.1701168879E-03
          0                 4           1            28    7     1       0.1433047657E-04      25    4    1        -0.1158262654E-05      0.1419175414E-04
          0                 5           1            28    7     1      -0.9645703744E-06      25    4    1         0.9552738156E-07      0.1048712675E-05

    ------------------------------------------------
       NWT REQUIRED            5 OUTER ITERATIONS 
       AND A TOTAL OF          8 INNER ITERATIONS.
    ------------------------------------------------

 NO OUTPUT CONTROL FOR STRESS PERIOD   39   TIME STEP   17
 
 WELLS WITH REDUCED PUMPING FOR STRESS PERIOD    39 TIME STEP    17
   LAY   ROW   COL         APPL.Q          ACT.Q        GW-HEAD       CELL-BOT
     1     3    50  -0.148006E+01  -0.347360E+00   0.352393E+01   0.000000E+00
     1     5    55  -0.148006E+01  -0.266192E+00   0.300185E+01   0.000000E+00
 
 
 SOLVING FOR HEAD 
                                                   Max.-Head-Change                         Max.-Flux-Residual
  Residual-Control   Outer-Iter.   Inner-Iter.     Column Row Layer    Maximum-Head-Change  Column Row Layer    Maximum-Flux-Residual          L2-NORM 
          0                 1           2             4    1     1      -0.2497241089E-01       4    7    1        -0.1032356493E-02      0.1892169830E-01
          0                 2           2             4    1     1       0.2333452918E-02       4    1    1         0.1032339118E-03      0.1843656494E-02
          0                 3           2            29    7     1      -0.1977121935E-03      27    4    1         0.1071059110E-04      0.1687041710E-03
          0                 4           1            29    7     1       0.1507865492E-04      27    4    1        -0.1112866780E-05      0.1411235266E-04
          0                 5           1            29    7     1      -0.1010040055E-05      27    4    1         0.9324607575E-07      0.1045775709E-05
          0                 6           1            51    1     1       0.5950987209E-07      27    4    1        -0.6406080999E-08      0.6687799289E-07

    ------------------------------------------------
       NWT REQUIRED            6 OUTER ITERATIONS 
       AND A TOTAL OF          9 INNER ITERATIONS.
    ------------------------------------------------

 NO OUTPUT CONTROL FOR STRESS PERIOD   39   TIME STEP   18
 
 WELLS WITH REDUCED PUMPING FOR STRESS PERIOD    39 TIME STEP    18
   LAY   ROW   COL         APPL.Q          ACT.Q        GW-HEAD       CELL-BOT
     1     3    50  -0.148005E+01  -0.346571E+00   0.351933E+01   0.000000E+00
     1     5    55  -0.148005E+01  -0.265569E+00   0.299793E+01   0.000000E+00
 
 
 SOLVING FOR HEAD 
                                                   Max.-Head-Change                         Max.-Flux-Residual
  Residual-Control   Outer-Iter.   Inner-Iter.     Column Row Layer    Maximum-Head-Change  Column Row Layer    Maximum-Flux-Residual          L2-NORM 
          0                 1           2             3    1     1      -0.2744475036E-01       4    7    1        -0.1031561369E-02      0.1874132255E-01
          0                 2           2             4    1     1       0.2558346254E-02       4    1    1         0.1031542716E-03      0.1826806139E-02
          0                 3           2             4    1     1      -0.2149775957E-03      28    4    1         0.1177060905E-04      0.1673564794E-03
          0                 4           1             4    1     1       0.1610721081E-04      28    4    1        -0.1176322804E-05      0.1403034019E-04
          0                 5           1            31    7     1      -0.1072754775E-05      28    4    1         0.9681847146E-07      0.1041777379E-05
          0                 6           1            51    1     1       0.6233425116E-07      28    4    1        -0.6581780454E-08      0.6677825296E-07

    ------------------------------------------------
       NWT REQUIRED            6 OUTER ITERATIONS 
       AND A TOTAL OF          9 INNER ITERATIONS.
    ------------------------------------------------

 NO OUTPUT CONTROL FOR STRESS PERIOD   39   TIME STEP   19
 
 WELLS WITH REDUCED PUMPING FOR STRESS PERIOD    39 TIME STEP    19
   LAY   ROW   COL         APPL.Q          ACT.Q        GW-HEAD       CELL-BOT
     1     3    50  -0.147997E+01  -0.345742E+00   0.351459E+01   0.000000E+00
     1     5    55  -0.147997E+01  -0.264915E+00   0.299387E+01   0.000000E+00
 
 
 SOLVING FOR HEAD 
                                                   Max.-Head-Change                         Max.-Flux-Residual
  Residual-Control   Outer-Iter.   Inner-Iter.     Column Row Layer    Maximum-Head-Change  Column Row Layer    Maximum-Flux-Residual          L2-NORM 
          0                 1           2             3    1     1      -0.3016509657E-01       3    7    1        -0.1030837285E-02      0.1855416993E-01
          0                 2           2             3    1     1       0.2805572018E-02       3    7    1         0.1030814133E-03      0.1808711086E-02
          0                 3           2             3    1     1      -0.2350809593E-03      30    4    1         0.1181278821E-04      0.1659785432E-03
          0                 4           1             4    1     1       0.1755110699E-04      30    4    1        -0.1210984165E-05      0.1395461323E-04
          0                 5           1             4    1     1      -0.1146081673E-05      30    4    1         0.1007627990E-06      0.1038383088E-05
          0                 6           1            51    1     1       0.6507796563E-07      30    4    1        -0.6873474234E-08      0.6671065638E-07

    ------------------------------------------------
       NWT REQUIRED            6 OUTER ITERATIONS 
       AND A TOTAL OF          9 INNER ITERATIONS.
    ------------------------------------------------

 NO OUTPUT CONTROL FOR STRESS PERIOD   39   TIME STEP   20
 
 WELLS WITH REDUCED PUMPING FOR STRESS PERIOD    39 TIME STEP    20
   LAY   ROW   COL         APPL.Q          ACT.Q        GW-HEAD       CELL-BOT
     1     3    50  -0.147996E+01  -0.344894E+00   0.350964E+01   0.000000E+00
     1     5    55  -0.147996E+01  -0.264240E+00   0.298960E+01   0.000000E+00
 
 
 SOLVING FOR HEAD 
                                                   Max.-Head-Change                         Max.-Flux-Residual
  Residual-Control   Outer-Iter.   Inner-Iter.     Column Row Layer    Maximum-Head-Change  Column Row Layer    Maximum-Flux-Residual          L2-NORM 
          0                 1           2             2    1     1      -0.3315660922E-01       3    7    1        -0.1030210342E-02      0.1837020476E-01
          0                 2           2             2    1     1       0.3077028626E-02       3    7    1         0.1030184037E-03      0.1791031080E-02
          0                 3           2             3    1     1      -0.2571203001E-03      31    4    1         0.1186872423E-04      0.1645297054E-03
          0                 4           1             3    1     1       0.1913064934E-04      31    4    1        -0.1203513154E-05      0.1386219119E-04
          0                 5           1             1    1     1      -0.1241153741E-05      31    4    1         0.9835032344E-07      0.1032771560E-05
          0                 6           1             1    1     1       0.6960950971E-07      31    4    1        -0.6623762872E-08      0.6645898377E-07

    ------------------------------------------------
       NWT REQUIRED            6 OUTER ITERATIONS 
       AND A TOTAL OF          9 INNER ITERATIONS.
    ------------------------------------------------

 NO OUTPUT CONTROL FOR STRESS PERIOD   39   TIME STEP   21
 
 WELLS WITH REDUCED PUMPING FOR STRESS PERIOD    39 TIME STEP    21
   LAY   ROW   COL         APPL.Q          ACT.Q        GW-HEAD       CELL-BOT
     1     3    50  -0.148000E+01  -0.344016E+00   0.350443E+01   0.000000E+00
     1     5    55  -0.148000E+01  -0.263540E+00   0.298510E+01   0.000000E+00
 
 
 SOLVING FOR HEAD 
                                                   Max.-Head-Change                         Max.-Flux-Residual
  Residual-Control   Outer-Iter.   Inner-Iter.     Column Row Layer    Maximum-Head-Change  Column Row Layer    Maximum-Flux-Residual          L2-NORM 
          0                 1           2             1    1     1      -0.3644626186E-01       2    1    1        -0.1029625923E-02      0.1818576376E-01
          0                 2           2             1    1     1       0.3375294779E-02       2    1    1         0.1029591879E-03      0.1773229236E-02
          0                 3           2             1    1     1      -0.2813022337E-03      33    4    1         0.1199111783E-04      0.1631564752E-03
          0                 4           1             1    1     1       0.2085735163E-04      33    4    1        -0.1209858596E-05      0.1378462974E-04
          0                 5           1             1    1     1      -0.1343587293E-05      33    4    1         0.9821174451E-07      0.1028160322E-05
          0                 6           1             1    1     1       0.7476816047E-07      33    4    1        -0.6587395518E-08      0.6624865120E-07

    ------------------------------------------------
       NWT REQUIRED            6 OUTER ITERATIONS 
       AND A TOTAL OF          9 INNER ITERATIONS.
    ------------------------------------------------

 NO OUTPUT CONTROL FOR STRESS PERIOD   39   TIME STEP   22
 
 WELLS WITH REDUCED PUMPING FOR STRESS PERIOD    39 TIME STEP    22
   LAY   ROW   COL         APPL.Q          ACT.Q        GW-HEAD       CELL-BOT
     1     3    50  -0.147999E+01  -0.343095E+00   0.349904E+01   0.000000E+00
     1     5    55  -0.147999E+01  -0.262803E+00   0.298042E+01   0.000000E+00
 
 
 SOLVING FOR HEAD 
                                                   Max.-Head-Change                         Max.-Flux-Residual
  Residual-Control   Outer-Iter.   Inner-Iter.     Column Row Layer    Maximum-Head-Change  Column Row Layer    Maximum-Flux-Residual          L2-NORM 
          0                 1           2             1    1     1      -0.4005821505E-01       1    7    1        -0.1029072188E-02      0.1800123089E-01
          0                 2           2             1    1     1       0.3702556895E-02       1    1    1         0.1029039093E-03      0.1755115933E-02
          0                 3           2             1    1     1      -0.3078062168E-03      34    4    1         0.1112982136E-04      0.1616358507E-03
          0                 4           1             1    1     1       0.2274511475E-04      34    4    1        -0.1135595729E-05      0.1368331785E-04
          0                 5           1             1    1     1      -0.1452992448E-05      34    4    1         0.9458773675E-07      0.1020448700E-05
          0                 6           1             1    1     1       0.8013366746E-07      34    4    1        -0.6480760817E-08      0.6577734260E-07

    ------------------------------------------------
       NWT REQUIRED            6 OUTER ITERATIONS 
       AND A TOTAL OF          9 INNER ITERATIONS.
    ------------------------------------------------

 NO OUTPUT CONTROL FOR STRESS PERIOD   39   TIME STEP   23
 
 WELLS WITH REDUCED PUMPING FOR STRESS PERIOD    39 TIME STEP    23
   LAY   ROW   COL         APPL.Q          ACT.Q        GW-HEAD       CELL-BOT
     1     3    50  -0.148003E+01  -0.342137E+00   0.349336E+01   0.000000E+00
     1     5    55  -0.148003E+01  -0.262032E+00   0.297547E+01   0.000000E+00
 
 
 SOLVING FOR HEAD 
                                                   Max.-Head-Change                         Max.-Flux-Residual
  Residual-Control   Outer-Iter.   Inner-Iter.     Column Row Layer    Maximum-Head-Change  Column Row Layer    Maximum-Flux-Residual          L2-NORM 
          0                 1           2             1    1     1      -0.4402310706E-01       1    7    1        -0.1028402596E-02      0.1781171910E-01
          0                 2           2             1    1     1       0.4061494099E-02       1    1    1         0.1028364890E-03      0.1736349288E-02
          0                 3           2             1    1     1      -0.3368384363E-03      36    4    1         0.1236288200E-04      0.1600946390E-03
          0                 4           1             1    1     1       0.2480625176E-04      36    4    1        -0.1215614901E-05      0.1358499022E-04
          0                 5           1             1    1     1      -0.1569157686E-05      36    4    1         0.9905951437E-07      0.1012465428E-05
          0                 6           1             1    1     1       0.8564191271E-07      36    4    1        -0.6694596877E-08      0.6525218149E-07

    ------------------------------------------------
       NWT REQUIRED            6 OUTER ITERATIONS 
       AND A TOTAL OF          9 INNER ITERATIONS.
    ------------------------------------------------

 NO OUTPUT CONTROL FOR STRESS PERIOD   39   TIME STEP   24
 
 WELLS WITH REDUCED PUMPING FOR STRESS PERIOD    39 TIME STEP    24
   LAY   ROW   COL         APPL.Q          ACT.Q        GW-HEAD       CELL-BOT
     1     3    50  -0.147999E+01  -0.341129E+00   0.348748E+01   0.000000E+00
     1     5    55  -0.147999E+01  -0.261217E+00   0.297032E+01   0.000000E+00
 
 
 SOLVING FOR HEAD 
                                                   Max.-Head-Change                         Max.-Flux-Residual
  Residual-Control   Outer-Iter.   Inner-Iter.     Column Row Layer    Maximum-Head-Change  Column Row Layer    Maximum-Flux-Residual          L2-NORM 
          0                 1           3             1    1     1      -0.4838245502E-01       1    7    1        -0.1027607173E-02      0.1763096932E-01
          0                 2           2             1    1     1       0.4456920500E-02       1    7    1         0.1027565320E-03      0.1717704950E-02
          0                 3           2             1    1     1      -0.3688485469E-03      68    4    1         0.1066842454E-04      0.1585285106E-03
          0                 4           1             3    1     1       0.2707698405E-04      37    4    1        -0.1039788186E-05      0.1348510343E-04
          0                 5           1             3    1     1      -0.1693113569E-05      38    4    1         0.8756031011E-07      0.1003406958E-05
          0                 6           1             1    1     1       0.9126514612E-07       2    4    1        -0.6421078780E-08      0.6460679177E-07

    ------------------------------------------------
       NWT REQUIRED            6 OUTER ITERATIONS 
       AND A TOTAL OF         10 INNER ITERATIONS.
    ------------------------------------------------

 NO OUTPUT CONTROL FOR STRESS PERIOD   39   TIME STEP   25
 
 WELLS WITH REDUCED PUMPING FOR STRESS PERIOD    39 TIME STEP    25
   LAY   ROW   COL         APPL.Q          ACT.Q        GW-HEAD       CELL-BOT
     1     3    50  -0.148002E+01  -0.340075E+00   0.348124E+01   0.000000E+00
     1     5    55  -0.148002E+01  -0.260362E+00   0.296483E+01   0.000000E+00
 
 
 SOLVING FOR HEAD 
                                                   Max.-Head-Change                         Max.-Flux-Residual
  Residual-Control   Outer-Iter.   Inner-Iter.     Column Row Layer    Maximum-Head-Change  Column Row Layer    Maximum-Flux-Residual          L2-NORM 
          0                 1           3             4    4     1      -0.5423669894E-01       1    7    1        -0.1026824709E-02      0.1754408018E-01
          0                 2           2             3    1     1       0.4963710923E-02      39    4    1        -0.1044460824E-03      0.1701732365E-02
          0                 3           2             3    1     1      -0.4104138250E-03      39    4    1         0.1225786196E-04      0.1564878752E-03
          0                 4           1             3    1     1       0.3005482959E-04      39    4    1        -0.1182900293E-05      0.1329451688E-04
          0                 5           1             3    1     1      -0.1855034961E-05      39    4    1         0.9016049951E-07      0.9843792720E-06
          0                 6           1             1    1     1       0.9850937064E-07       2    4    1        -0.6162945709E-08      0.6322452233E-07

    ------------------------------------------------
       NWT REQUIRED            6 OUTER ITERATIONS 
       AND A TOTAL OF         10 INNER ITERATIONS.
    ------------------------------------------------

 NO OUTPUT CONTROL FOR STRESS PERIOD   39   TIME STEP   26
 
 WELLS WITH REDUCED PUMPING FOR STRESS PERIOD    39 TIME STEP    26
   LAY   ROW   COL         APPL.Q          ACT.Q        GW-HEAD       CELL-BOT
     1     3    50  -0.148001E+01  -0.338957E+00   0.347467E+01   0.000000E+00
     1     5    55  -0.148001E+01  -0.259450E+00   0.295902E+01   0.000000E+00
 
 
 SOLVING FOR HEAD 
                                                   Max.-Head-Change                         Max.-Flux-Residual
  Residual-Control   Outer-Iter.   Inner-Iter.     Column Row Layer    Maximum-Head-Change  Column Row Layer    Maximum-Flux-Residual          L2-NORM 
          0                 1           3             1    4     1      -0.6021918993E-01       3    5    1        -0.1045949258E-02      0.1750435137E-01
          0                 2           2             3    1     1       0.5523478111E-02       3    5    1         0.1045961090E-03      0.1695391689E-02
          0                 3           2             4    1     1      -0.4568665730E-03      65    4    1         0.1047260644E-04      0.1557864054E-03
          0                 4           1             4    1     1       0.3341949205E-04      41    4    1        -0.1018447692E-05      0.1324234341E-04
          0                 5           1             3    1     1      -0.2029474428E-05       2    4    1         0.8082908920E-07      0.9749225048E-06
          0                 6           1             3    1     1       0.1056079146E-06       2    4    1        -0.6355847404E-08      0.6239027047E-07

    ------------------------------------------------
       NWT REQUIRED            6 OUTER ITERATIONS 
       AND A TOTAL OF         10 INNER ITERATIONS.
    ------------------------------------------------

 NO OUTPUT CONTROL FOR STRESS PERIOD   39   TIME STEP   27
 
 WELLS WITH REDUCED PUMPING FOR STRESS PERIOD    39 TIME STEP    27
   LAY   ROW   COL         APPL.Q          ACT.Q        GW-HEAD       CELL-BOT
     1     3    50  -0.148000E+01  -0.337782E+00   0.346775E+01   0.000000E+00
     1     5    55  -0.148000E+01  -0.258487E+00   0.295286E+01   0.000000E+00
 
 
 SOLVING FOR HEAD 
                                                   Max.-Head-Change                         Max.-Flux-Residual
  Residual-Control   Outer-Iter.   Inner-Iter.     Column Row Layer    Maximum-Head-Change  Column Row Layer    Maximum-Flux-Residual          L2-NORM 
          0                 1           3             1    1     1      -0.6611026794E-01       1    5    1        -0.1057236934E-02      0.1742397073E-01
          0                 2           2             1    1     1       0.6090787623E-02       1    5    1         0.1057148540E-03      0.1691690686E-02
          0                 3           2             1    1     1      -0.5032955505E-03      42    4    1         0.1155545437E-04      0.1557859838E-03
          0                 4           1             1    1     1       0.3672526025E-04      42    4    1        -0.1104846923E-05      0.1327040692E-04
          0                 5           1             1    1     1      -0.2190201984E-05      42    4    1         0.8859066547E-07      0.9702872902E-06
          0                 6           1             1    1     1       0.1122460429E-06       9    4    1        -0.6337288028E-08      0.6179399792E-07

    ------------------------------------------------
       NWT REQUIRED            6 OUTER ITERATIONS 
       AND A TOTAL OF         10 INNER ITERATIONS.
    ------------------------------------------------

 NO OUTPUT CONTROL FOR STRESS PERIOD   39   TIME STEP   28
 
 WELLS WITH REDUCED PUMPING FOR STRESS PERIOD    39 TIME STEP    28
   LAY   ROW   COL         APPL.Q          ACT.Q        GW-HEAD       CELL-BOT
     1     3    50  -0.147997E+01  -0.336554E+00   0.346053E+01   0.000000E+00
     1     5    55  -0.147997E+01  -0.257473E+00   0.294639E+01   0.000000E+00
 
 
 SOLVING FOR HEAD 
                                                   Max.-Head-Change                         Max.-Flux-Residual
  Residual-Control   Outer-Iter.   Inner-Iter.     Column Row Layer    Maximum-Head-Change  Column Row Layer    Maximum-Flux-Residual          L2-NORM 
          0                 1           3             1    1     1      -0.7267869270E-01       1    5    1        -0.1054995030E-02      0.1730517802E-01
          0                 2           2             1    1     1       0.6688065891E-02       1    5    1         0.1054910355E-03      0.1680878893E-02
          0                 3           2             1    1     1      -0.5517406019E-03      62    4    1         0.1048471710E-04      0.1549770253E-03
          0                 4           1             1    1     1       0.4012233009E-04      62    4    1        -0.9508302239E-06      0.1322699087E-04
          0                 5           1             1    1     1      -0.2332285189E-05       9    4    1         0.8413732644E-07      0.9587804582E-06
          0                 6           1             1    1     1       0.1165207679E-06       9    4    1        -0.6392074425E-08      0.6074617649E-07

    ------------------------------------------------
       NWT REQUIRED            6 OUTER ITERATIONS 
       AND A TOTAL OF         10 INNER ITERATIONS.
    ------------------------------------------------

 NO OUTPUT CONTROL FOR STRESS PERIOD   39   TIME STEP   29
 
 WELLS WITH REDUCED PUMPING FOR STRESS PERIOD    39 TIME STEP    29
   LAY   ROW   COL         APPL.Q          ACT.Q        GW-HEAD       CELL-BOT
     1     3    50  -0.148002E+01  -0.335269E+00   0.345288E+01   0.000000E+00
     1     5    55  -0.148002E+01  -0.256410E+00   0.293953E+01   0.000000E+00
 
 
 SOLVING FOR HEAD 
                                                   Max.-Head-Change                         Max.-Flux-Residual
  Residual-Control   Outer-Iter.   Inner-Iter.     Column Row Layer    Maximum-Head-Change  Column Row Layer    Maximum-Flux-Residual          L2-NORM 
          0                 1           3             1    1     1      -0.7980384371E-01       1    5    1        -0.1053963389E-02      0.1717540887E-01
          0                 2           2             1    1     1       0.7335343573E-02      45    4    1        -0.1057511103E-03      0.1668828824E-02
          0                 3           2             1    1     1      -0.6041489376E-03      45    4    1         0.1156361008E-04      0.1539621815E-03
          0                 4           1             1    1     1       0.4376980780E-04      45    4    1        -0.1068552513E-05      0.1315724212E-04
          0                 5           1             1    1     1      -0.2463823586E-05       9    4    1         0.8572873256E-07      0.9428960885E-06
          0                 6           1             1    1     1       0.1193212726E-06       9    4    1        -0.6430635580E-08      0.5940532813E-07

    ------------------------------------------------
       NWT REQUIRED            6 OUTER ITERATIONS 
       AND A TOTAL OF         10 INNER ITERATIONS.
    ------------------------------------------------

 NO OUTPUT CONTROL FOR STRESS PERIOD   39   TIME STEP   30
 
 WELLS WITH REDUCED PUMPING FOR STRESS PERIOD    39 TIME STEP    30
   LAY   ROW   COL         APPL.Q          ACT.Q        GW-HEAD       CELL-BOT
     1     3    50  -0.147997E+01  -0.333918E+00   0.344495E+01   0.000000E+00
     1     5    55  -0.147997E+01  -0.255291E+00   0.293239E+01   0.000000E+00
 



 STREAM LISTING     PERIOD     39   STEP       30

 LAYER ROW COL. STREAM  RCH.   FLOW INTO    STREAM     FLOW OUT OF   OVRLND.    DIRECT     STREAM      STREAM      STREAM     STREAM  STREAMBED   FLOW TO   CHNG. UNSAT. 
                SEG.NO.  NO.   STRM. RCH.    LOSS       STRM. RCH.   RUNOFF     PRECIP       ET         HEAD        DEPTH      WIDTH  CONDCTNC.   WAT. TAB.

   1    4    1     1     1    3.0000E+00  1.1769E-03   2.9988E+00  0.000E+00  0.000E+00  0.000E+00  1.41144E+02  1.294E+00  3.361E+00  6.560E-04  1.143E-03  3.353E-05
   1    4    2     1     2    2.9988E+00  1.1766E-03   2.9976E+00  0.000E+00  0.000E+00  0.000E+00  1.40844E+02  1.294E+00  3.361E+00  6.559E-04  1.143E-03  3.354E-05
   1    4    3     1     3    2.9976E+00  1.1763E-03   2.9965E+00  0.000E+00  0.000E+00  0.000E+00  1.40544E+02  1.294E+00  3.360E+00  6.558E-04  1.143E-03  3.352E-05
   1    4    4     1     4    2.9965E+00  1.1759E-03   2.9953E+00  0.000E+00  0.000E+00  0.000E+00  1.40243E+02  1.293E+00  3.360E+00  6.557E-04  1.142E-03  3.349E-05
   1    4    5     1     5    2.9953E+00  1.1756E-03   2.9941E+00  0.000E+00  0.000E+00  0.000E+00  1.39943E+02  1.293E+00  3.360E+00  6.556E-04  1.142E-03  3.345E-05
   1    4    6     1     6    2.9941E+00  1.1753E-03   2.9929E+00  0.000E+00  0.000E+00  0.000E+00  1.39643E+02  1.293E+00  3.359E+00  6.555E-04  1.142E-03  3.338E-05
   1    4    7     1     7    2.9929E+00  1.1750E-03   2.9918E+00  0.000E+00  0.000E+00  0.000E+00  1.39343E+02  1.293E+00  3.359E+00  6.554E-04  1.142E-03  3.330E-05
   1    4    8     1     8    2.9918E+00  1.1746E-03   2.9906E+00  0.000E+00  0.000E+00  0.000E+00  1.39042E+02  1.292E+00  3.359E+00  6.554E-04  1.141E-03  3.319E-05
   1    4    9     1     9    2.9906E+00  1.1743E-03   2.9894E+00  0.000E+00  0.000E+00  0.000E+00  1.38742E+02  1.292E+00  3.358E+00  6.553E-04  1.141E-03  3.307E-05
   1    4   10     1    10    2.9894E+00  1.1740E-03   2.9882E+00  0.000E+00  0.000E+00  0.000E+00  1.38442E+02  1.292E+00  3.358E+00  6.552E-04  1.141E-03  3.291E-05
   1    4   11     1    11    2.9882E+00  1.1736E-03   2.9871E+00  0.000E+00  0.000E+00  0.000E+00  1.38142E+02  1.292E+00  3.358E+00  6.551E-04  1.141E-03  3.274E-05
   1    4   12     1    12    2.9871E+00  1.1733E-03   2.9859E+00  0.000E+00  0.000E+00  0.000E+00  1.37841E+02  1.291E+00  3.357E+00  6.550E-04  1.141E-03  3.254E-05
   1    4   13     1    13    2.9859E+00  1.1730E-03   2.9847E+00  0.000E+00  0.000E+00  0.000E+00  1.37541E+02  1.291E+00  3.357E+00  6.549E-04  1.141E-03  3.232E-05
   1    4   14     1    14    2.9847E+00  1.1727E-03   2.9836E+00  0.000E+00  0.000E+00  0.000E+00  1.37241E+02  1.291E+00  3.357E+00  6.548E-04  1.141E-03  3.209E-05
   1    4   15     1    15    2.9836E+00  1.1723E-03   2.9824E+00  0.000E+00  0.000E+00  0.000E+00  1.36941E+02  1.291E+00  3.357E+00  6.548E-04  1.144E-03  2.811E-05
   1    4   16     1    16    2.9824E+00  1.1720E-03   2.9812E+00  0.000E+00  0.000E+00  0.000E+00  1.36640E+02  1.290E+00  3.356E+00  6.547E-04  1.153E-03  1.913E-05
   1    4   17     1    17    2.9812E+00  1.1717E-03   2.9800E+00  0.000E+00  0.000E+00  0.000E+00  1.36340E+02  1.290E+00  3.356E+00  6.546E-04  1.153E-03  1.878E-05
   1    4   18     1    18    2.9800E+00  1.1714E-03   2.9789E+00  0.000E+00  0.000E+00  0.000E+00  1.36040E+02  1.290E+00  3.356E+00  6.545E-04  1.153E-03  1.842E-05
   1    4   19     1    19    2.9789E+00  1.1710E-03   2.9777E+00  0.000E+00  0.000E+00  0.000E+00  1.35739E+02  1.289E+00  3.355E+00  6.544E-04  1.153E-03  1.803E-05
   1    4   20     1    20    2.9777E+00  1.1707E-03   2.9765E+00  0.000E+00  0.000E+00  0.000E+00  1.35439E+02  1.289E+00  3.355E+00  6.543E-04  1.153E-03  1.761E-05
   1    4   21     1    21    2.9765E+00  1.1704E-03   2.9754E+00  0.000E+00  0.000E+00  0.000E+00  1.35139E+02  1.289E+00  3.355E+00  6.542E-04  1.153E-03  1.716E-05
   1    4   22     1    22    2.9754E+00  1.1701E-03   2.9742E+00  0.000E+00  0.000E+00  0.000E+00  1.34839E+02  1.289E+00  3.354E+00  6.542E-04  1.153E-03  1.667E-05
   1    4   23     1    23    2.9742E+00  1.1697E-03   2.9730E+00  0.000E+00  0.000E+00  0.000E+00  1.34538E+02  1.288E+00  3.354E+00  6.541E-04  1.154E-03  1.615E-05
   1    4   24     1    24    2.9730E+00  1.1694E-03   2.9718E+00  0.000E+00  0.000E+00  0.000E+00  1.34238E+02  1.288E+00  3.354E+00  6.540E-04  1.154E-03  1.559E-05
   1    4   25     1    25    2.9718E+00  1.1691E-03   2.9707E+00  0.000E+00  0.000E+00  0.000E+00  1.33938E+02  1.288E+00  3.353E+00  6.539E-04  1.154E-03  1.499E-05
   1    4   26     1    26    2.9707E+00  1.1688E-03   2.9695E+00  0.000E+00  0.000E+00  0.000E+00  1.33638E+02  1.288E+00  3.353E+00  6.538E-04  1.154E-03  1.436E-05
   1    4   27     1    27    2.9695E+00  1.1684E-03   2.9683E+00  0.000E+00  0.000E+00  0.000E+00  1.33337E+02  1.287E+00  3.353E+00  6.537E-04  1.156E-03  1.228E-05
   1    4   28     1    28    2.9683E+00  1.1681E-03   2.9672E+00  0.000E+00  0.000E+00  0.000E+00  1.33037E+02  1.287E+00  3.352E+00  6.536E-04  1.157E-03  1.146E-05
   1    4   29     1    29    2.9672E+00  1.1678E-03   2.9660E+00  0.000E+00  0.000E+00  0.000E+00  1.32737E+02  1.287E+00  3.352E+00  6.535E-04  1.157E-03  1.058E-05
   1    4   30     1    30    2.9660E+00  1.1675E-03   2.9648E+00  0.000E+00  0.000E+00  0.000E+00  1.32437E+02  1.287E+00  3.352E+00  6.535E-04  1.158E-03  9.661E-06
   1    4   31     1    31    2.9648E+00  1.1671E-03   2.9637E+00  0.000E+00  0.000E+00  0.000E+00  1.32136E+02  1.286E+00  3.351E+00  6.534E-04  1.158E-03  8.698E-06
   1    4   32     1    32    2.9637E+00  1.1668E-03   2.9625E+00  0.000E+00  0.000E+00  0.000E+00  1.31836E+02  1.286E+00  3.351E+00  6.533E-04  1.159E-03  7.686E-06
   1    4   33     1    33    2.9625E+00  1.1665E-03   2.9613E+00  0.000E+00  0.000E+00  0.000E+00  1.31536E+02  1.286E+00  3.351E+00  6.532E-04  1.160E-03  6.651E-06
   1    4   34     1    34    2.9613E+00  1.1662E-03   2.9602E+00  0.000E+00  0.000E+00  0.000E+00  1.31236E+02  1.286E+00  3.351E+00  6.531E-04  1.161E-03  5.603E-06
   1    4   35     1    35    2.9602E+00  1.1658E-03   2.9590E+00  0.000E+00  0.000E+00  0.000E+00  1.30935E+02  1.285E+00  3.350E+00  6.530E-04  1.161E-03  4.547E-06
   1    4   36     1    36    2.9590E+00  1.1655E-03   2.9578E+00  0.000E+00  0.000E+00  0.000E+00  1.30635E+02  1.285E+00  3.350E+00  6.529E-04  1.162E-03  3.485E-06
   1    4   37     1    37    2.9578E+00  1.1652E-03   2.9567E+00  0.000E+00  0.000E+00  0.000E+00  1.30335E+02  1.285E+00  3.350E+00  6.529E-04  1.165E-03  5.088E-07
   1    4   38     1    38    2.9567E+00  1.1649E-03   2.9555E+00  0.000E+00  0.000E+00  0.000E+00  1.30034E+02  1.284E+00  3.349E+00  6.528E-04  1.176E-03 -1.162E-05
   1    4   39     1    39    2.9555E+00  1.1645E-03   2.9543E+00  0.000E+00  0.000E+00  0.000E+00  1.29734E+02  1.284E+00  3.349E+00  6.527E-04  1.199E-03 -3.414E-05
   1    4   40     1    40    2.9543E+00  1.1642E-03   2.9532E+00  0.000E+00  0.000E+00  0.000E+00  1.29434E+02  1.284E+00  3.349E+00  6.526E-04  1.234E-03 -7.022E-05
   1    4   41     1    41    2.9532E+00  1.1639E-03   2.9520E+00  0.000E+00  0.000E+00  0.000E+00  1.29134E+02  1.284E+00  3.348E+00  6.525E-04  1.283E-03 -1.188E-04
   1    4   42     1    42    2.9520E+00  1.1636E-03   2.9509E+00  0.000E+00  0.000E+00  0.000E+00  1.28833E+02  1.283E+00  3.348E+00  6.524E-04  1.326E-03 -1.622E-04
   1    4   43     1    43    2.9509E+00  1.1632E-03   2.9497E+00  0.000E+00  0.000E+00  0.000E+00  1.28533E+02  1.283E+00  3.348E+00  6.523E-04  1.356E-03 -1.931E-04
   1    4   44     1    44    2.9497E+00  1.1629E-03   2.9485E+00  0.000E+00  0.000E+00  0.000E+00  1.28233E+02  1.283E+00  3.347E+00  6.523E-04  1.372E-03 -2.093E-04
   1    4   45     1    45    2.9485E+00  1.1626E-03   2.9474E+00  0.000E+00  0.000E+00  0.000E+00  1.27933E+02  1.283E+00  3.347E+00  6.522E-04  1.378E-03 -2.151E-04
   1    4   46     1    46    2.9474E+00  1.1623E-03   2.9462E+00  0.000E+00  0.000E+00  0.000E+00  1.27632E+02  1.282E+00  3.347E+00  6.521E-04  5.177E-04  6.446E-04
   1    4   47     1    47    2.9462E+00  1.1619E-03   2.9450E+00  0.000E+00  0.000E+00  0.000E+00  1.27332E+02  1.282E+00  3.346E+00  6.520E-04  1.839E-04  9.781E-04
   1    4   48     1    48    2.9450E+00  1.1616E-03   2.9439E+00  0.000E+00  0.000E+00  0.000E+00  1.27032E+02  1.282E+00  3.346E+00  6.519E-04  1.893E-04  9.723E-04
   1    4   49     1    49    2.9439E+00  1.1613E-03   2.9427E+00  0.000E+00  0.000E+00  0.000E+00  1.26732E+02  1.282E+00  3.346E+00  6.518E-04  2.383E-04  9.230E-04
   1    4   50     1    50    2.9427E+00  1.1610E-03   2.9416E+00  0.000E+00  0.000E+00  0.000E+00  1.26431E+02  1.281E+00  3.346E+00  6.518E-04  2.853E-04  8.757E-04
   1    4   51     1    51    2.9416E+00  1.1607E-03   2.9404E+00  0.000E+00  0.000E+00  0.000E+00  1.26131E+02  1.281E+00  3.345E+00  6.517E-04  2.711E-04  8.896E-04
   1    4   52     1    52    2.9404E+00  1.1603E-03   2.9392E+00  0.000E+00  0.000E+00  0.000E+00  1.25831E+02  1.281E+00  3.345E+00  6.516E-04  2.610E-04  8.993E-04
   1    4   53     1    53    2.9392E+00  1.1600E-03   2.9381E+00  0.000E+00  0.000E+00  0.000E+00  1.25531E+02  1.281E+00  3.345E+00  6.515E-04  2.621E-04  8.979E-04
   1    4   54     1    54    2.9381E+00  1.1597E-03   2.9369E+00  0.000E+00  0.000E+00  0.000E+00  1.25230E+02  1.280E+00  3.344E+00  6.514E-04  2.738E-04  8.859E-04
   1    4   55     1    55    2.9369E+00  1.1594E-03   2.9358E+00  0.000E+00  0.000E+00  0.000E+00  1.24930E+02  1.280E+00  3.344E+00  6.513E-04  2.843E-04  8.751E-04
   1    4   56     1    56    2.9358E+00  1.1590E-03   2.9346E+00  0.000E+00  0.000E+00  0.000E+00  1.24630E+02  1.280E+00  3.344E+00  6.512E-04  2.378E-04  9.212E-04
   1    4   57     1    57    2.9346E+00  1.1587E-03   2.9334E+00  0.000E+00  0.000E+00  0.000E+00  1.24329E+02  1.279E+00  3.343E+00  6.512E-04  2.342E-04  9.245E-04
   1    4   58     1    58    2.9334E+00  1.1584E-03   2.9323E+00  0.000E+00  0.000E+00  0.000E+00  1.24029E+02  1.279E+00  3.343E+00  6.511E-04  1.824E-04  9.760E-04
   1    4   59     1    59    2.9323E+00  1.1581E-03   2.9311E+00  0.000E+00  0.000E+00  0.000E+00  1.23729E+02  1.279E+00  3.343E+00  6.510E-04  1.826E-04  9.754E-04
   1    4   60     1    60    2.9311E+00  1.1577E-03   2.9300E+00  0.000E+00  0.000E+00  0.000E+00  1.23429E+02  1.279E+00  3.342E+00  6.509E-04  9.114E-04  2.464E-04
   1    4   61     1    61    2.9300E+00  1.1574E-03   2.9288E+00  0.000E+00  0.000E+00  0.000E+00  1.23128E+02  1.278E+00  3.342E+00  6.508E-04  1.376E-03 -2.182E-04
   1    4   62     1    62    2.9288E+00  1.1571E-03   2.9276E+00  0.000E+00  0.000E+00  0.000E+00  1.22828E+02  1.278E+00  3.342E+00  6.507E-04  1.366E-03 -2.086E-04
   1    4   63     1    63    2.9276E+00  1.1568E-03   2.9265E+00  0.000E+00  0.000E+00  0.000E+00  1.22528E+02  1.278E+00  3.341E+00  6.506E-04  1.342E-03 -1.851E-04
   1    4   64     1    64    2.9265E+00  1.1565E-03   2.9253E+00  0.000E+00  0.000E+00  0.000E+00  1.22228E+02  1.278E+00  3.341E+00  6.506E-04  1.304E-03 -1.477E-04
   1    4   65     1    65    2.9253E+00  1.1561E-03   2.9242E+00  0.000E+00  0.000E+00  0.000E+00  1.21927E+02  1.277E+00  3.341E+00  6.505E-04  1.254E-03 -9.744E-05
   1    4   66     1    66    2.9242E+00  1.1558E-03   2.9230E+00  0.000E+00  0.000E+00  0.000E+00  1.21627E+02  1.277E+00  3.340E+00  6.504E-04  1.210E-03 -5.414E-05
   1    4   67     1    67    2.9230E+00  1.1555E-03   2.9219E+00  0.000E+00  0.000E+00  0.000E+00  1.21327E+02  1.277E+00  3.340E+00  6.503E-04  1.181E-03 -2.588E-05
   1    4   68     1    68    2.9219E+00  1.1552E-03   2.9207E+00  0.000E+00  0.000E+00  0.000E+00  1.21027E+02  1.277E+00  3.340E+00  6.502E-04  1.167E-03 -1.160E-05
   1    4   69     1    69    2.9207E+00  1.1548E-03   2.9196E+00  0.000E+00  0.000E+00  0.000E+00  1.20726E+02  1.276E+00  3.340E+00  6.501E-04  1.163E-03 -8.391E-06
   1    4   70     1    70    2.9196E+00  1.1545E-03   2.9184E+00  0.000E+00  0.000E+00  0.000E+00  1.20426E+02  1.276E+00  3.339E+00  6.500E-04  1.163E-03 -8.336E-06
   1    4   71     1    71    2.9184E+00  1.1542E-03   2.9172E+00  0.000E+00  0.000E+00  0.000E+00  1.20126E+02  1.276E+00  3.339E+00  6.500E-04  1.163E-03 -8.337E-06
   1    4   72     1    72    2.9172E+00  1.1539E-03   2.9161E+00  0.000E+00  0.000E+00  0.000E+00  1.19826E+02  1.276E+00  3.339E+00  6.499E-04  1.162E-03 -8.405E-06
   1    4   73     1    73    2.9161E+00  1.1536E-03   2.9149E+00  0.000E+00  0.000E+00  0.000E+00  1.19525E+02  1.275E+00  3.338E+00  6.498E-04  1.162E-03 -8.542E-06
   1    4   74     1    74    2.9149E+00  1.1532E-03   2.9138E+00  0.000E+00  0.000E+00  0.000E+00  1.19225E+02  1.275E+00  3.338E+00  6.497E-04  1.162E-03 -8.777E-06
   1    4   75     1    75    2.9138E+00  1.1529E-03   2.9126E+00  0.000E+00  0.000E+00  0.000E+00  1.18925E+02  1.275E+00  3.338E+00  6.496E-04  1.162E-03 -9.126E-06
   1    4   76     1    76    2.9126E+00  1.1526E-03   2.9115E+00  0.000E+00  0.000E+00  0.000E+00  1.18625E+02  1.275E+00  3.337E+00  6.495E-04  1.162E-03 -9.581E-06
   1    4   77     1    77    2.9115E+00  1.1523E-03   2.9103E+00  0.000E+00  0.000E+00  0.000E+00  1.18324E+02  1.274E+00  3.337E+00  6.494E-04  1.162E-03 -1.015E-05
   1    4   78     1    78    2.9103E+00  1.1520E-03   2.9092E+00  0.000E+00  0.000E+00  0.000E+00  1.18024E+02  1.274E+00  3.337E+00  6.494E-04  1.163E-03 -1.082E-05
   1    4   79     1    79    2.9092E+00  1.1516E-03   2.9080E+00  0.000E+00  0.000E+00  0.000E+00  1.17724E+02  1.274E+00  3.336E+00  6.493E-04  1.163E-03 -1.159E-05
   1    4   80     1    80    2.9080E+00  1.1513E-03   2.9069E+00  0.000E+00  0.000E+00  0.000E+00  1.17423E+02  1.273E+00  3.336E+00  6.492E-04  1.164E-03 -1.247E-05
   1    4   81     1    81    2.9069E+00  1.1510E-03   2.9057E+00  0.000E+00  0.000E+00  0.000E+00  1.17123E+02  1.273E+00  3.336E+00  6.491E-04  1.164E-03 -1.343E-05
   1    4   82     1    82    2.9057E+00  1.1507E-03   2.9046E+00  0.000E+00  0.000E+00  0.000E+00  1.16823E+02  1.273E+00  3.335E+00  6.490E-04  1.165E-03 -1.449E-05
   1    4   83     1    83    2.9046E+00  1.1503E-03   2.9034E+00  0.000E+00  0.000E+00  0.000E+00  1.16523E+02  1.273E+00  3.335E+00  6.489E-04  1.166E-03 -1.562E-05
   1    4   84     1    84    2.9034E+00  1.1500E-03   2.9023E+00  0.000E+00  0.000E+00  0.000E+00  1.16222E+02  1.272E+00  3.335E+00  6.488E-04  1.165E-03 -1.478E-05
   1    4   85     1    85    2.9023E+00  1.1497E-03   2.9011E+00  0.000E+00  0.000E+00  0.000E+00  1.15922E+02  1.272E+00  3.335E+00  6.488E-04  1.156E-03 -6.036E-06
   1    4   86     1    86    2.9011E+00  1.1494E-03   2.9000E+00  0.000E+00  0.000E+00  0.000E+00  1.15622E+02  1.272E+00  3.334E+00  6.487E-04  1.157E-03 -7.357E-06
   1    4   87     1    87    2.9000E+00  1.1491E-03   2.8988E+00  0.000E+00  0.000E+00  0.000E+00  1.15322E+02  1.272E+00  3.334E+00  6.486E-04  1.158E-03 -8.713E-06
   1    4   88     1    88    2.8988E+00  1.1487E-03   2.8977E+00  0.000E+00  0.000E+00  0.000E+00  1.15021E+02  1.271E+00  3.334E+00  6.485E-04  1.159E-03 -1.009E-05
   1    4   89     1    89    2.8977E+00  1.1484E-03   2.8965E+00  0.000E+00  0.000E+00  0.000E+00  1.14721E+02  1.271E+00  3.333E+00  6.484E-04  1.160E-03 -1.148E-05
   1    4   90     1    90    2.8965E+00  1.1481E-03   2.8954E+00  0.000E+00  0.000E+00  0.000E+00  1.14421E+02  1.271E+00  3.333E+00  6.483E-04  1.161E-03 -1.285E-05
   1    4   91     1    91    2.8954E+00  1.1478E-03   2.8942E+00  0.000E+00  0.000E+00  0.000E+00  1.14121E+02  1.271E+00  3.333E+00  6.482E-04  1.162E-03 -1.421E-05
   1    4   92     1    92    2.8942E+00  1.1475E-03   2.8931E+00  0.000E+00  0.000E+00  0.000E+00  1.13820E+02  1.270E+00  3.332E+00  6.482E-04  1.163E-03 -1.553E-05
   1    4   93     1    93    2.8931E+00  1.1471E-03   2.8919E+00  0.000E+00  0.000E+00  0.000E+00  1.13520E+02  1.270E+00  3.332E+00  6.481E-04  1.164E-03 -1.681E-05
   1    4   94     1    94    2.8919E+00  1.1468E-03   2.8908E+00  0.000E+00  0.000E+00  0.000E+00  1.13220E+02  1.270E+00  3.332E+00  6.480E-04  1.165E-03 -1.805E-05
   1    4   95     1    95    2.8908E+00  1.1465E-03   2.8896E+00  0.000E+00  0.000E+00  0.000E+00  1.12920E+02  1.270E+00  3.331E+00  6.479E-04  1.166E-03 -1.924E-05
   1    4   96     1    96    2.8896E+00  1.1462E-03   2.8885E+00  0.000E+00  0.000E+00  0.000E+00  1.12619E+02  1.269E+00  3.331E+00  6.478E-04  1.167E-03 -2.039E-05
   1    4   97     1    97    2.8885E+00  1.1459E-03   2.8874E+00  0.000E+00  0.000E+00  0.000E+00  1.12319E+02  1.269E+00  3.331E+00  6.477E-04  1.167E-03 -2.151E-05
   1    4   98     1    98    2.8874E+00  1.1455E-03   2.8862E+00  0.000E+00  0.000E+00  0.000E+00  1.12019E+02  1.269E+00  3.330E+00  6.477E-04  1.168E-03 -2.260E-05
   1    4   99     1    99    2.8862E+00  1.1452E-03   2.8851E+00  0.000E+00  0.000E+00  0.000E+00  1.11718E+02  1.269E+00  3.330E+00  6.476E-04  1.169E-03 -2.367E-05
   1    4  100     1   100    2.8851E+00  1.1449E-03   2.8839E+00  0.000E+00  0.000E+00  0.000E+00  1.11418E+02  1.268E+00  3.330E+00  6.475E-04  1.170E-03 -2.472E-05



1
  VOLUMETRIC BUDGET FOR UNSATURATED ZONE BENEATH STREAMS AT END OF TIME STEP    30 STRESS PERIOD  39
  ------------------------------------------------------------------------------------------------

    CUMULATIVE VOLUMES             L**3    RATES FOR THIS TIME STEP         L**3/T
    ------------------                     ------------------------


          STREAM LOSS =     30939002.0000            STREAM LOSS =            0.1161
    CHANGE IN STORAGE =      1272856.3750      CHANGE IN STORAGE =        1.1255E-02
       RECHARGE TO GW =     29673166.0000         RECHARGE TO GW =            0.1048

             TOTAL IN =     30939002.0000               TOTAL IN =            0.1161

            TOTAL OUT =     30946022.0000              TOTAL OUT =            0.1161

             IN - OUT =        -7020.0000               IN - OUT =        3.2783E-07

  PERCENT DISCREPANCY =           -0.01      PERCENT DISCREPANCY =             0.00



1
  VOLUMETRIC BUDGET FOR ENTIRE MODEL AT END OF TIME STEP   30, STRESS PERIOD  39
  ------------------------------------------------------------------------------

     CUMULATIVE VOLUMES      L**3       RATES FOR THIS TIME STEP      L**3/T
     ------------------                 ------------------------

           IN:                                      IN:
           ---                                      ---
             STORAGE     =   110071736.0000               STORAGE     =           0.4012
       CONSTANT HEAD     =           0.0000         CONSTANT HEAD     =           0.0000
               WELLS     =           0.0000                 WELLS     =           0.0000
     HEAD DEP BOUNDS     =     1657823.0000       HEAD DEP BOUNDS     =       8.3171E-02
      STREAM LEAKAGE     =    29673062.0000        STREAM LEAKAGE     =           0.1048

                TOTAL IN =   141402624.0000                  TOTAL IN =           0.5892

          OUT:                                     OUT:
          ----                                     ----
             STORAGE     =     3382471.7500               STORAGE     =           0.0000
       CONSTANT HEAD     =           0.0000         CONSTANT HEAD     =           0.0000
               WELLS     =   121634256.0000                 WELLS     =           0.5892
     HEAD DEP BOUNDS     =    16385952.0000       HEAD DEP BOUNDS     =           0.0000
      STREAM LEAKAGE     =           0.0000        STREAM LEAKAGE     =           0.0000

               TOTAL OUT =   141402688.0000                 TOTAL OUT =           0.5892

                IN - OUT =         -64.0000                  IN - OUT =           0.0000

     PERCENT DISCREPANCY =          -0.00         PERCENT DISCREPANCY =           0.00






         TIME SUMMARY AT END OF TIME STEP   30 IN STRESS PERIOD   39
                    SECONDS     MINUTES      HOURS       DAYS        YEARS
                    -----------------------------------------------------------
   TIME STEP LENGTH 2.49961E+05  4166.0      69.434      2.8931     7.92080E-03
 STRESS PERIOD TIME 2.59200E+06  43200.      720.00      30.000     8.21355E-02
         TOTAL TIME 1.01088E+08 1.68480E+06  28080.      1170.0      3.2033    
1
1
                            STRESS PERIOD NO.   40, LENGTH =   2592000.    
                            -----------------------------------------------

                              NUMBER OF TIME STEPS =    30

                               MULTIPLIER FOR DELT =     1.100

                            INITIAL TIME STEP SIZE =   15757.40    

 REUSING NON-PARAMETER WELLS FROM LAST STRESS PERIOD

      1 WELL 

 REUSING NON-PARAMETER GHB CELLS FROM LAST STRESS PERIOD

      7 GHB CELLS



 CLASSIFICATION & COUNT OF STREAM SEGMENTS BASED ON SOURCE OF INFLOW:

                HEADWATER     DIVERSION     RECEIVES TRIBUTARY FLOW
                ---------     ---------     -----------------------
                     1              0               0



                    INPUT DATA FOR EACH STREAM SEGMENT
 ---------------------------------------------------------------------------------------------

 SEGMENT    SEG.     INFLOW   OVERLAND   STREAM    STREAM   ICALC  OUTFLOW  DIVERSION PRIORITY
    NO.    LENGTH     RATE     RUNOFF      ET       PPT.    METH.  TO SEG.  FROM SEG.    NO.

      1  2.000E+04 2.460E+00 0.000E+00 0.000E+00 0.000E+00    2        0        0        0


         STREAMBED PROPERTIES AND STREAM DIMENSIONS

 SEGMENT     BED HYD. COND.      BED THICKNESS     ELEV.-TOP OF BED     WIDTH OF STREAM     DEPTH OF STREAM    STREAM ROUGHNESS
    No.     UPPER     LOWER     UPPER     LOWER     UPPER     LOWER     UPPER     LOWER     UPPER     LOWER   CHANNEL      BANK

     1  3.500E-07 3.500E-07                                                                                 3.000E-02 4.000E-02

  EIGHT POINT CROSS-SECTION DATA FOR SEGMENTS WITH ICALC = 2
    X VALUES X VALUES START FROM LEFT SIDE LOOKING DOWNSTREAM

     SEGMENT NO.        X1        X2        X3        X4        X5        X6        X7        X8
            1      0.000E+00 2.000E+00 4.000E+00 6.000E+00 8.000E+00 1.000E+01 1.200E+01 1.400E+01

    Z VALUES ARE RELATIVE TO STREAMBED ELEVATION

     SEGMENT NO.          Z1        Z2        Z3        Z4        Z5        Z6        Z7        Z8
            1      6.000E+00 4.500E+00 3.500E+00 0.000E+00 3.000E-01 3.500E+00 4.500E+00 6.000E+00



 
 SOLVING FOR HEAD 
                                                   Max.-Head-Change                         Max.-Flux-Residual
  Residual-Control   Outer-Iter.   Inner-Iter.     Column Row Layer    Maximum-Head-Change  Column Row Layer    Maximum-Flux-Residual          L2-NORM 
          0                 1           2            50    3     1       0.6328667034E-01      50    3    1         0.2464688452E-01      0.3537276090E-01
          0                 2           2            50    3     1      -0.6356417176E-02      50    3    1        -0.2515503534E-02      0.3571198527E-02
          0                 3           2            50    3     1       0.5649632975E-03      50    3    1         0.2258954028E-03      0.3215953837E-03
          0                 4           1            50    3     1      -0.4482439489E-04      50    3    1        -0.1809817020E-04      0.2587177136E-04
          0                 5           1            50    3     1       0.3121877258E-05      50    3    1         0.1272256290E-05      0.1825154284E-05
          0                 6           1            50    3     1      -0.1874517435E-06      50    3    1        -0.7709365646E-07      0.1108547050E-06

    ------------------------------------------------
       NWT REQUIRED            6 OUTER ITERATIONS 
       AND A TOTAL OF          9 INNER ITERATIONS.
    ------------------------------------------------

 NO OUTPUT CONTROL FOR STRESS PERIOD   40   TIME STEP    1
 
 WELLS WITH REDUCED PUMPING FOR STRESS PERIOD    40 TIME STEP     1
   LAY   ROW   COL         APPL.Q          ACT.Q        GW-HEAD       CELL-BOT
     1     3    50  -0.137023E+01  -0.318180E+00   0.350240E+01   0.000000E+00
     1     5    55  -0.137023E+01  -0.242976E+00   0.297811E+01   0.000000E+00
 
 
 SOLVING FOR HEAD 
                                                   Max.-Head-Change                         Max.-Flux-Residual
  Residual-Control   Outer-Iter.   Inner-Iter.     Column Row Layer    Maximum-Head-Change  Column Row Layer    Maximum-Flux-Residual          L2-NORM 
          0                 1           2            50    3     1       0.3580874779E-01      50    3    1         0.1312615338E-01      0.2386474337E-01
          0                 2           2            50    3     1      -0.3553458995E-02      50    3    1        -0.1328897981E-02      0.2365540707E-02
          0                 3           2            50    3     1       0.3152807271E-03      50    3    1         0.1194442494E-03      0.2139085332E-03
          0                 4           1            50    3     1      -0.2498567734E-04      50    3    1        -0.9568711329E-05      0.1731030437E-04
          0                 5           1            50    3     1       0.1739526835E-05      50    3    1         0.6726598093E-06      0.1227764826E-05
          0                 6           1            50    3     1      -0.1044387153E-06      50    3    1        -0.4076033602E-07      0.7485283753E-07

    ------------------------------------------------
       NWT REQUIRED            6 OUTER ITERATIONS 
       AND A TOTAL OF          9 INNER ITERATIONS.
    ------------------------------------------------

 NO OUTPUT CONTROL FOR STRESS PERIOD   40   TIME STEP    2
 
 WELLS WITH REDUCED PUMPING FOR STRESS PERIOD    40 TIME STEP     2
   LAY   ROW   COL         APPL.Q          ACT.Q        GW-HEAD       CELL-BOT
     1     3    50  -0.137023E+01  -0.323327E+00   0.353495E+01   0.000000E+00
     1     5    55  -0.137023E+01  -0.246905E+00   0.300506E+01   0.000000E+00
 
 
 SOLVING FOR HEAD 
                                                   Max.-Head-Change                         Max.-Flux-Residual
  Residual-Control   Outer-Iter.   Inner-Iter.     Column Row Layer    Maximum-Head-Change  Column Row Layer    Maximum-Flux-Residual          L2-NORM 
          0                 1           2            50    3     1       0.1998891972E-01      50    3    1         0.6854887064E-02      0.1916866530E-01
          0                 2           2            50    3     1      -0.1961675352E-02      50    3    1        -0.6906074555E-03      0.1873371087E-02
          0                 3           2            50    3     1       0.1734962203E-03      50    3    1         0.6210642150E-04      0.1700434425E-03
          0                 4           1            50    3     1      -0.1372579522E-04      50    3    1        -0.4975098770E-05      0.1385747366E-04
          0                 5           1            50    3     1       0.9549879783E-06      50    3    1         0.3497390563E-06      0.9894448344E-06

    ------------------------------------------------
       NWT REQUIRED            5 OUTER ITERATIONS 
       AND A TOTAL OF          8 INNER ITERATIONS.
    ------------------------------------------------

 NO OUTPUT CONTROL FOR STRESS PERIOD   40   TIME STEP    3
 
 WELLS WITH REDUCED PUMPING FOR STRESS PERIOD    40 TIME STEP     3
   LAY   ROW   COL         APPL.Q          ACT.Q        GW-HEAD       CELL-BOT
     1     3    50  -0.136982E+01  -0.326119E+00   0.355313E+01   0.000000E+00
     1     5    55  -0.136982E+01  -0.249115E+00   0.302064E+01   0.000000E+00
 
 
 SOLVING FOR HEAD 
                                                   Max.-Head-Change                         Max.-Flux-Residual
  Residual-Control   Outer-Iter.   Inner-Iter.     Column Row Layer    Maximum-Head-Change  Column Row Layer    Maximum-Flux-Residual          L2-NORM 
          0                 1           2            50    3     1       0.1053509759E-01      50    3    1         0.3347070928E-02      0.1750243439E-01
          0                 2           2            50    3     1      -0.1021324114E-02      50    3    1        -0.3361342594E-03      0.1700932167E-02
          0                 3           1            50    3     1       0.8987143748E-04      50    3    1         0.3023883561E-04      0.1548018742E-03
          0                 4           1            50    3     1      -0.7090860105E-05      50    3    1        -0.2422198703E-05      0.1268065284E-04
          0                 5           1            50    3     1       0.4928026407E-06      50    3    1         0.1702751312E-06      0.9101650368E-06

    ------------------------------------------------
       NWT REQUIRED            5 OUTER ITERATIONS 
       AND A TOTAL OF          7 INNER ITERATIONS.
    ------------------------------------------------

 NO OUTPUT CONTROL FOR STRESS PERIOD   40   TIME STEP    4
 
 WELLS WITH REDUCED PUMPING FOR STRESS PERIOD    40 TIME STEP     4
   LAY   ROW   COL         APPL.Q          ACT.Q        GW-HEAD       CELL-BOT
     1     3    50  -0.137019E+01  -0.327734E+00   0.356273E+01   0.000000E+00
     1     5    55  -0.137019E+01  -0.250428E+00   0.302913E+01   0.000000E+00
 
 
 SOLVING FOR HEAD 
                                                   Max.-Head-Change                         Max.-Flux-Residual
  Residual-Control   Outer-Iter.   Inner-Iter.     Column Row Layer    Maximum-Head-Change  Column Row Layer    Maximum-Flux-Residual          L2-NORM 
          0                 1           2             1    1     1      -0.7393490425E-02      50    3    1         0.1670049150E-02      0.1704419112E-01
          0                 2           2             1    1     1       0.7157219628E-03      50    3    1        -0.1674130152E-03      0.1654378881E-02
          0                 3           1             1    1     1      -0.6263443274E-04      50    3    1         0.1506339947E-04      0.1507755125E-03
          0                 4           1             1    1     1       0.4898330773E-05      50    3    1        -0.1206579758E-05      0.1238862988E-04
          0                 5           1             1    1     1      -0.3374441274E-06      50    3    1         0.8481921174E-07      0.8923230464E-06

    ------------------------------------------------
       NWT REQUIRED            5 OUTER ITERATIONS 
       AND A TOTAL OF          7 INNER ITERATIONS.
    ------------------------------------------------

 NO OUTPUT CONTROL FOR STRESS PERIOD   40   TIME STEP    5
 
 WELLS WITH REDUCED PUMPING FOR STRESS PERIOD    40 TIME STEP     5
   LAY   ROW   COL         APPL.Q          ACT.Q        GW-HEAD       CELL-BOT
     1     3    50  -0.137009E+01  -0.328540E+00   0.356794E+01   0.000000E+00
     1     5    55  -0.137009E+01  -0.251098E+00   0.303381E+01   0.000000E+00
 
 
 SOLVING FOR HEAD 
                                                   Max.-Head-Change                         Max.-Flux-Residual
  Residual-Control   Outer-Iter.   Inner-Iter.     Column Row Layer    Maximum-Head-Change  Column Row Layer    Maximum-Flux-Residual          L2-NORM 
          0                 1           2             1    1     1      -0.8129682671E-02       1    1    1        -0.1051095014E-02      0.1690409329E-01
          0                 2           2             1    1     1       0.7852014265E-03       1    1    1         0.1051092385E-03      0.1640600381E-02
          0                 3           1             1    1     1      -0.6856150887E-04       1    1    1        -0.9459860532E-05      0.1496642632E-03
          0                 4           1             1    1     1       0.5350578649E-05       1    7    1         0.7577346550E-06      0.1232598288E-04
          0                 5           1             1    1     1      -0.3679021651E-06       1    4    1         0.5331909847E-07      0.8904278212E-06

    ------------------------------------------------
       NWT REQUIRED            5 OUTER ITERATIONS 
       AND A TOTAL OF          7 INNER ITERATIONS.
    ------------------------------------------------

 NO OUTPUT CONTROL FOR STRESS PERIOD   40   TIME STEP    6
 
 WELLS WITH REDUCED PUMPING FOR STRESS PERIOD    40 TIME STEP     6
   LAY   ROW   COL         APPL.Q          ACT.Q        GW-HEAD       CELL-BOT
     1     3    50  -0.136992E+01  -0.328959E+00   0.357083E+01   0.000000E+00
     1     5    55  -0.136992E+01  -0.251448E+00   0.303640E+01   0.000000E+00
 
 
 SOLVING FOR HEAD 
                                                   Max.-Head-Change                         Max.-Flux-Residual
  Residual-Control   Outer-Iter.   Inner-Iter.     Column Row Layer    Maximum-Head-Change  Column Row Layer    Maximum-Flux-Residual          L2-NORM 
          0                 1           2             1    1     1      -0.8938964188E-02       1    1    1        -0.1050901159E-02      0.1684953182E-01
          0                 2           2             1    1     1       0.8613380797E-03       1    1    1         0.1050898007E-03      0.1635665527E-02
          0                 3           1             1    1     1      -0.7503254796E-04       1    1    1        -0.9458116605E-05      0.1493367825E-03
          0                 4           1             1    1     1       0.5842278676E-05       1    7    1         0.7575948842E-06      0.1232452260E-04
          0                 5           1             1    1     1      -0.4008706514E-06       1    4    1         0.5518428381E-07      0.8928094297E-06

    ------------------------------------------------
       NWT REQUIRED            5 OUTER ITERATIONS 
       AND A TOTAL OF          7 INNER ITERATIONS.
    ------------------------------------------------

 NO OUTPUT CONTROL FOR STRESS PERIOD   40   TIME STEP    7
 
 WELLS WITH REDUCED PUMPING FOR STRESS PERIOD    40 TIME STEP     7
   LAY   ROW   COL         APPL.Q          ACT.Q        GW-HEAD       CELL-BOT
     1     3    50  -0.136984E+01  -0.329185E+00   0.357236E+01   0.000000E+00
     1     5    55  -0.136984E+01  -0.251634E+00   0.303777E+01   0.000000E+00
 
 
 SOLVING FOR HEAD 
                                                   Max.-Head-Change                         Max.-Flux-Residual
  Residual-Control   Outer-Iter.   Inner-Iter.     Column Row Layer    Maximum-Head-Change  Column Row Layer    Maximum-Flux-Residual          L2-NORM 
          0                 1           2             1    1     1      -0.9828566695E-02       1    1    1        -0.1050688513E-02      0.1682266931E-01
          0                 2           2             1    1     1       0.9447737941E-03       1    1    1         0.1050684753E-03      0.1632721699E-02
          0                 3           1             1    1     1      -0.8209785948E-04       1    1    1        -0.9456203667E-05      0.1491574455E-03
          0                 4           1             1    1     1       0.6376839263E-05       1    1    1         0.7574415726E-06      0.1233440344E-04
          0                 5           1             1    1     1      -0.4365454316E-06       1    4    1         0.5700661276E-07      0.8960701359E-06

    ------------------------------------------------
       NWT REQUIRED            5 OUTER ITERATIONS 
       AND A TOTAL OF          7 INNER ITERATIONS.
    ------------------------------------------------

 NO OUTPUT CONTROL FOR STRESS PERIOD   40   TIME STEP    8
 
 WELLS WITH REDUCED PUMPING FOR STRESS PERIOD    40 TIME STEP     8
   LAY   ROW   COL         APPL.Q          ACT.Q        GW-HEAD       CELL-BOT
     1     3    50  -0.136988E+01  -0.329303E+00   0.357305E+01   0.000000E+00
     1     5    55  -0.136988E+01  -0.251725E+00   0.303834E+01   0.000000E+00
 
 
 SOLVING FOR HEAD 
                                                   Max.-Head-Change                         Max.-Flux-Residual
  Residual-Control   Outer-Iter.   Inner-Iter.     Column Row Layer    Maximum-Head-Change  Column Row Layer    Maximum-Flux-Residual          L2-NORM 
          0                 1           2             1    1     1      -0.1080643110E-01       1    1    1        -0.1050455349E-02      0.1678601994E-01
          0                 2           2             1    1     1       0.1036214523E-02       1    1    1         0.1050450886E-03      0.1629354792E-02
          0                 3           1             1    1     1      -0.8981285129E-04       1    1    1        -0.9454106177E-05      0.1489762740E-03
          0                 4           1             1    1     1       0.6958007589E-05       1    7    1         0.7572734693E-06      0.1234564803E-04
          0                 5           1             1    1     1      -0.4751409197E-06       1    4    1         0.5878060350E-07      0.8995408371E-06

    ------------------------------------------------
       NWT REQUIRED            5 OUTER ITERATIONS 
       AND A TOTAL OF          7 INNER ITERATIONS.
    ------------------------------------------------

 NO OUTPUT CONTROL FOR STRESS PERIOD   40   TIME STEP    9
 
 WELLS WITH REDUCED PUMPING FOR STRESS PERIOD    40 TIME STEP     9
   LAY   ROW   COL         APPL.Q          ACT.Q        GW-HEAD       CELL-BOT
     1     3    50  -0.136994E+01  -0.329344E+00   0.357321E+01   0.000000E+00
     1     5    55  -0.136994E+01  -0.251748E+00   0.303841E+01   0.000000E+00
 
 
 SOLVING FOR HEAD 
                                                   Max.-Head-Change                         Max.-Flux-Residual
  Residual-Control   Outer-Iter.   Inner-Iter.     Column Row Layer    Maximum-Head-Change  Column Row Layer    Maximum-Flux-Residual          L2-NORM 
          0                 1           2             1    1     1      -0.1188127977E-01       1    1    1        -0.1050199691E-02      0.1678086952E-01
          0                 2           2             1    1     1       0.1136437135E-02       1    1    1         0.1050194417E-03      0.1628424445E-02
          0                 3           1             1    1     1      -0.9823860863E-04       1    1    1        -0.9451806378E-05      0.1489620931E-03
          0                 4           1             1    1     1       0.7589906561E-05       1    7    1         0.7570891341E-06      0.1236777574E-04
          0                 5           1             1    1     1      -0.5168918767E-06       1    4    1         0.6050121470E-07      0.9037392864E-06

    ------------------------------------------------
       NWT REQUIRED            5 OUTER ITERATIONS 
       AND A TOTAL OF          7 INNER ITERATIONS.
    ------------------------------------------------

 NO OUTPUT CONTROL FOR STRESS PERIOD   40   TIME STEP   10
 
 WELLS WITH REDUCED PUMPING FOR STRESS PERIOD    40 TIME STEP    10
   LAY   ROW   COL         APPL.Q          ACT.Q        GW-HEAD       CELL-BOT
     1     3    50  -0.136988E+01  -0.329317E+00   0.357313E+01   0.000000E+00
     1     5    55  -0.136988E+01  -0.251714E+00   0.303825E+01   0.000000E+00
 
 
 SOLVING FOR HEAD 
                                                   Max.-Head-Change                         Max.-Flux-Residual
  Residual-Control   Outer-Iter.   Inner-Iter.     Column Row Layer    Maximum-Head-Change  Column Row Layer    Maximum-Flux-Residual          L2-NORM 
          0                 1           2             1    1     1      -0.1306268633E-01       1    1    1        -0.1049919318E-02      0.1675203373E-01
          0                 2           2             1    1     1       0.1246296001E-02       1    1    1         0.1049913112E-03      0.1625734642E-02
          0                 3           1             1    1     1      -0.1074424484E-03       1    1    1        -0.9449284263E-05      0.1488334048E-03
          0                 4           1             1    1     1       0.8277066604E-05       1    1    1         0.7568869904E-06      0.1238285146E-04
          0                 5           1             1    1     1      -0.5620551895E-06       1    4    1         0.6216367510E-07      0.9075729015E-06

    ------------------------------------------------
       NWT REQUIRED            5 OUTER ITERATIONS 
       AND A TOTAL OF          7 INNER ITERATIONS.
    ------------------------------------------------

 NO OUTPUT CONTROL FOR STRESS PERIOD   40   TIME STEP   11
 
 WELLS WITH REDUCED PUMPING FOR STRESS PERIOD    40 TIME STEP    11
   LAY   ROW   COL         APPL.Q          ACT.Q        GW-HEAD       CELL-BOT
     1     3    50  -0.137005E+01  -0.329279E+00   0.357264E+01   0.000000E+00
     1     5    55  -0.137005E+01  -0.251669E+00   0.303775E+01   0.000000E+00
 
 
 SOLVING FOR HEAD 
                                                   Max.-Head-Change                         Max.-Flux-Residual
  Residual-Control   Outer-Iter.   Inner-Iter.     Column Row Layer    Maximum-Head-Change  Column Row Layer    Maximum-Flux-Residual          L2-NORM 
          0                 1           2             1    1     1      -0.1436116098E-01       1    1    1        -0.1049611753E-02      0.1673023184E-01
          0                 2           2             1    1     1       0.1366730989E-02       1    1    1         0.1049604481E-03      0.1623644839E-02
          0                 3           2             1    1     1      -0.1175005902E-03       1    1    1        -0.9446517563E-05      0.1487529723E-03
          0                 4           1             1    1     1       0.9026598010E-05       1    1    1         0.7566652265E-06      0.1240470534E-04
          0                 5           1             1    1     1      -0.6110493164E-06       1    4    1         0.6377623052E-07      0.9118926218E-06

    ------------------------------------------------
       NWT REQUIRED            5 OUTER ITERATIONS 
       AND A TOTAL OF          8 INNER ITERATIONS.
    ------------------------------------------------

 NO OUTPUT CONTROL FOR STRESS PERIOD   40   TIME STEP   12
 
 WELLS WITH REDUCED PUMPING FOR STRESS PERIOD    40 TIME STEP    12
   LAY   ROW   COL         APPL.Q          ACT.Q        GW-HEAD       CELL-BOT
     1     3    50  -0.137007E+01  -0.329184E+00   0.357202E+01   0.000000E+00
     1     5    55  -0.137007E+01  -0.251578E+00   0.303710E+01   0.000000E+00
 
 
 SOLVING FOR HEAD 
                                                   Max.-Head-Change                         Max.-Flux-Residual
  Residual-Control   Outer-Iter.   Inner-Iter.     Column Row Layer    Maximum-Head-Change  Column Row Layer    Maximum-Flux-Residual          L2-NORM 
          0                 1           2             1    1     1      -0.1578823842E-01       1    1    1        -0.1049274255E-02      0.1671628857E-01
          0                 2           2             1    1     1       0.1498775657E-02       1    1    1         0.1049265768E-03      0.1622325859E-02
          0                 3           2             1    1     1      -0.1284921118E-03       1    1    1        -0.9443481606E-05      0.1487343369E-03
          0                 4           1             1    1     1       0.9841060659E-05       1    1    1         0.7564218691E-06      0.1242820572E-04
          0                 5           1             1    1     1      -0.6639884126E-06       1    4    1         0.6531522700E-07      0.9162624858E-06

    ------------------------------------------------
       NWT REQUIRED            5 OUTER ITERATIONS 
       AND A TOTAL OF          8 INNER ITERATIONS.
    ------------------------------------------------

 NO OUTPUT CONTROL FOR STRESS PERIOD   40   TIME STEP   13
 
 WELLS WITH REDUCED PUMPING FOR STRESS PERIOD    40 TIME STEP    13
   LAY   ROW   COL         APPL.Q          ACT.Q        GW-HEAD       CELL-BOT
     1     3    50  -0.137007E+01  -0.329062E+00   0.357125E+01   0.000000E+00
     1     5    55  -0.137007E+01  -0.251463E+00   0.303632E+01   0.000000E+00
 
 
 SOLVING FOR HEAD 
                                                   Max.-Head-Change                         Max.-Flux-Residual
  Residual-Control   Outer-Iter.   Inner-Iter.     Column Row Layer    Maximum-Head-Change  Column Row Layer    Maximum-Flux-Residual          L2-NORM 
          0                 1           2             1    1     1      -0.1735657368E-01       1    1    1        -0.1048903789E-02      0.1672436894E-01
          0                 2           2             1    1     1       0.1643566140E-02       1    1    1         0.1048893921E-03      0.1622421437E-02
          0                 3           2             1    1     1      -0.1405085615E-03       1    1    1        -0.9440149103E-05      0.1487692182E-03
          0                 4           1             1    1     1       0.1072796741E-04       1    1    1         0.7561547477E-06      0.1245208256E-04
          0                 5           1             1    1     1      -0.7212991053E-06       1    4    1         0.6678591546E-07      0.9204957777E-06

    ------------------------------------------------
       NWT REQUIRED            5 OUTER ITERATIONS 
       AND A TOTAL OF          8 INNER ITERATIONS.
    ------------------------------------------------

 NO OUTPUT CONTROL FOR STRESS PERIOD   40   TIME STEP   14
 
 WELLS WITH REDUCED PUMPING FOR STRESS PERIOD    40 TIME STEP    14
   LAY   ROW   COL         APPL.Q          ACT.Q        GW-HEAD       CELL-BOT
     1     3    50  -0.137003E+01  -0.328914E+00   0.357038E+01   0.000000E+00
     1     5    55  -0.137003E+01  -0.251323E+00   0.303542E+01   0.000000E+00
 
 
 SOLVING FOR HEAD 
                                                   Max.-Head-Change                         Max.-Flux-Residual
  Residual-Control   Outer-Iter.   Inner-Iter.     Column Row Layer    Maximum-Head-Change  Column Row Layer    Maximum-Flux-Residual          L2-NORM 
          0                 1           2             1    1     1      -0.1908004672E-01       1    1    1        -0.1048497010E-02      0.1669634141E-01
          0                 2           2             1    1     1       0.1802350780E-02       1    1    1         0.1048485576E-03      0.1619876144E-02
          0                 3           2             1    1     1      -0.1536494713E-03       1    1    1        -0.9436489908E-05      0.1486275033E-03
          0                 4           1             1    1     1       0.1169420129E-04       1    1    1         0.7558614250E-06      0.1246388872E-04
          0                 5           1             1    1     1      -0.7833517131E-06       1    4    1         0.6818532228E-07      0.9238652424E-06

    ------------------------------------------------
       NWT REQUIRED            5 OUTER ITERATIONS 
       AND A TOTAL OF          8 INNER ITERATIONS.
    ------------------------------------------------

 NO OUTPUT CONTROL FOR STRESS PERIOD   40   TIME STEP   15
 
 WELLS WITH REDUCED PUMPING FOR STRESS PERIOD    40 TIME STEP    15
   LAY   ROW   COL         APPL.Q          ACT.Q        GW-HEAD       CELL-BOT
     1     3    50  -0.137003E+01  -0.328750E+00   0.356935E+01   0.000000E+00
     1     5    55  -0.137003E+01  -0.251168E+00   0.303437E+01   0.000000E+00
 
 
 SOLVING FOR HEAD 
                                                   Max.-Head-Change                         Max.-Flux-Residual
  Residual-Control   Outer-Iter.   Inner-Iter.     Column Row Layer    Maximum-Head-Change  Column Row Layer    Maximum-Flux-Residual          L2-NORM 
          0                 1           2             1    1     1      -0.2097387646E-01       1    1    1        -0.1048050223E-02      0.1665634029E-01
          0                 2           2             1    1     1       0.1976500588E-02       1    1    1         0.1048037019E-03      0.1616367311E-02
          0                 3           2             1    1     1      -0.1680244221E-03       1    1    1        -0.9432470790E-05      0.1484291106E-03
          0                 4           1             1    1     1       0.1274735315E-04       1    1    1         0.7555392543E-06      0.1247313050E-04
          0                 5           1             1    1     1      -0.8505416040E-06       2    4    1         0.6951467313E-07      0.9270537961E-06

    ------------------------------------------------
       NWT REQUIRED            5 OUTER ITERATIONS 
       AND A TOTAL OF          8 INNER ITERATIONS.
    ------------------------------------------------

 NO OUTPUT CONTROL FOR STRESS PERIOD   40   TIME STEP   16
 
 WELLS WITH REDUCED PUMPING FOR STRESS PERIOD    40 TIME STEP    16
   LAY   ROW   COL         APPL.Q          ACT.Q        GW-HEAD       CELL-BOT
     1     3    50  -0.137003E+01  -0.328560E+00   0.356816E+01   0.000000E+00
     1     5    55  -0.137003E+01  -0.250995E+00   0.303319E+01   0.000000E+00
 
 
 SOLVING FOR HEAD 
                                                   Max.-Head-Change                         Max.-Flux-Residual
  Residual-Control   Outer-Iter.   Inner-Iter.     Column Row Layer    Maximum-Head-Change  Column Row Layer    Maximum-Flux-Residual          L2-NORM 
          0                 1           2             1    1     1      -0.2305474491E-01       1    1    1        -0.1047559355E-02      0.1663412465E-01
          0                 2           2             1    1     1       0.2167520549E-02       1    1    1         0.1047544155E-03      0.1614197206E-02
          0                 3           2             1    1     1      -0.1837539719E-03       1    1    1        -0.9428055101E-05      0.1483201559E-03
          0                 4           1             1    1     1       0.1389578011E-04       1    7    1         0.7551852739E-06      0.1248747984E-04
          0                 5           1             1    1     1      -0.9232830464E-06       2    4    1         0.7078305586E-07      0.9303647266E-06

    ------------------------------------------------
       NWT REQUIRED            5 OUTER ITERATIONS 
       AND A TOTAL OF          8 INNER ITERATIONS.
    ------------------------------------------------

 NO OUTPUT CONTROL FOR STRESS PERIOD   40   TIME STEP   17
 
 WELLS WITH REDUCED PUMPING FOR STRESS PERIOD    40 TIME STEP    17
   LAY   ROW   COL         APPL.Q          ACT.Q        GW-HEAD       CELL-BOT
     1     3    50  -0.137006E+01  -0.328346E+00   0.356677E+01   0.000000E+00
     1     5    55  -0.137006E+01  -0.250804E+00   0.303185E+01   0.000000E+00
 
 
 SOLVING FOR HEAD 
                                                   Max.-Head-Change                         Max.-Flux-Residual
  Residual-Control   Outer-Iter.   Inner-Iter.     Column Row Layer    Maximum-Head-Change  Column Row Layer    Maximum-Flux-Residual          L2-NORM 
          0                 1           2             1    1     1      -0.2534092684E-01       1    1    1        -0.1047019916E-02      0.1661916660E-01
          0                 2           2             1    1     1       0.2377061387E-02       1    1    1         0.1047002470E-03      0.1612788525E-02
          0                 3           2             1    1     1      -0.2009706143E-03       1    1    1        -0.9423202382E-05      0.1482552635E-03
          0                 4           1             1    1     1       0.1514866423E-04       1    1    1         0.7547962646E-06      0.1250249936E-04
          0                 5           1             1    1     1      -0.1002001130E-05       2    4    1         0.7197938245E-07      0.9333674728E-06
          0                 6           1             1    1     1       0.5730977877E-07       2    4    1        -0.5574978701E-08      0.6000459104E-07

    ------------------------------------------------
       NWT REQUIRED            6 OUTER ITERATIONS 
       AND A TOTAL OF          9 INNER ITERATIONS.
    ------------------------------------------------

 NO OUTPUT CONTROL FOR STRESS PERIOD   40   TIME STEP   18
 
 WELLS WITH REDUCED PUMPING FOR STRESS PERIOD    40 TIME STEP    18
   LAY   ROW   COL         APPL.Q          ACT.Q        GW-HEAD       CELL-BOT
     1     3    50  -0.137005E+01  -0.328122E+00   0.356539E+01   0.000000E+00
     1     5    55  -0.137005E+01  -0.250588E+00   0.303040E+01   0.000000E+00
 
 
 SOLVING FOR HEAD 
                                                   Max.-Head-Change                         Max.-Flux-Residual
  Residual-Control   Outer-Iter.   Inner-Iter.     Column Row Layer    Maximum-Head-Change  Column Row Layer    Maximum-Flux-Residual          L2-NORM 
          0                 1           2             1    1     1      -0.2785244343E-01       1    7    1        -0.1046427751E-02      0.1662140585E-01
          0                 2           2             1    1     1       0.2606933615E-02       1    7    1         0.1046407777E-03      0.1612350906E-02
          0                 3           2             1    1     1      -0.2198199324E-03       1    7    1        -0.9417875239E-05      0.1482258507E-03
          0                 4           1             1    1     1       0.1651607869E-04       1    7    1         0.7543692120E-06      0.1251739399E-04
          0                 5           1             1    1     1      -0.1087117524E-05       2    4    1         0.7310342554E-07      0.9359823060E-06
          0                 6           1             1    1     1       0.6184339515E-07       2    4    1        -0.5682256443E-08      0.6031175704E-07

    ------------------------------------------------
       NWT REQUIRED            6 OUTER ITERATIONS 
       AND A TOTAL OF          9 INNER ITERATIONS.
    ------------------------------------------------

 NO OUTPUT CONTROL FOR STRESS PERIOD   40   TIME STEP   19
 
 WELLS WITH REDUCED PUMPING FOR STRESS PERIOD    40 TIME STEP    19
   LAY   ROW   COL         APPL.Q          ACT.Q        GW-HEAD       CELL-BOT
     1     3    50  -0.136997E+01  -0.327906E+00   0.356414E+01   0.000000E+00
     1     5    55  -0.136997E+01  -0.250385E+00   0.302911E+01   0.000000E+00
 
 
 SOLVING FOR HEAD 
                                                   Max.-Head-Change                         Max.-Flux-Residual
  Residual-Control   Outer-Iter.   Inner-Iter.     Column Row Layer    Maximum-Head-Change  Column Row Layer    Maximum-Flux-Residual          L2-NORM 
          0                 1           2             1    1     1      -0.3061118843E-01       1    7    1        -0.1045776157E-02      0.1656489639E-01
          0                 2           2             1    1     1       0.2859118135E-02       1    7    1         0.1045753349E-03      0.1607630819E-02
          0                 3           2             1    1     1      -0.2404613793E-03       1    7    1        -0.9412013316E-05      0.1479314534E-03
          0                 4           1             1    1     1       0.1800901497E-04       1    1    1         0.7538992897E-06      0.1251691749E-04
          0                 5           1             1    1     1      -0.1179027552E-05       2    4    1         0.7415455627E-07      0.9374068392E-06
          0                 6           1             1    1     1       0.6667242014E-07       2    4    1        -0.5781949142E-08      0.6052936065E-07

    ------------------------------------------------
       NWT REQUIRED            6 OUTER ITERATIONS 
       AND A TOTAL OF          9 INNER ITERATIONS.
    ------------------------------------------------

 NO OUTPUT CONTROL FOR STRESS PERIOD   40   TIME STEP   20
 
 WELLS WITH REDUCED PUMPING FOR STRESS PERIOD    40 TIME STEP    20
   LAY   ROW   COL         APPL.Q          ACT.Q        GW-HEAD       CELL-BOT
     1     3    50  -0.136996E+01  -0.327668E+00   0.356266E+01   0.000000E+00
     1     5    55  -0.136996E+01  -0.250183E+00   0.302775E+01   0.000000E+00
 
 
 SOLVING FOR HEAD 
                                                   Max.-Head-Change                         Max.-Flux-Residual
  Residual-Control   Outer-Iter.   Inner-Iter.     Column Row Layer    Maximum-Head-Change  Column Row Layer    Maximum-Flux-Residual          L2-NORM 
          0                 1           2             1    1     1      -0.3364113080E-01       1    7    1        -0.1045059357E-02      0.1653476612E-01
          0                 2           2             1    1     1       0.3135785210E-02       1    7    1         0.1045033372E-03      0.1604660382E-02
          0                 3           2             1    1     1      -0.2630698783E-03       1    7    1        -0.9405564602E-05      0.1477265246E-03
          0                 4           1             1    1     1       0.1963946815E-04       1    7    1         0.7533823139E-06      0.1251903791E-04
          0                 5           1             1    1     1      -0.1278069924E-05       2    4    1         0.7513309086E-07      0.9383579047E-06
          0                 6           1             1    1     1       0.7179056591E-07       2    4    1        -0.5873641129E-08      0.6067912175E-07

    ------------------------------------------------
       NWT REQUIRED            6 OUTER ITERATIONS 
       AND A TOTAL OF          9 INNER ITERATIONS.
    ------------------------------------------------

 NO OUTPUT CONTROL FOR STRESS PERIOD   40   TIME STEP   21
 
 WELLS WITH REDUCED PUMPING FOR STRESS PERIOD    40 TIME STEP    21
   LAY   ROW   COL         APPL.Q          ACT.Q        GW-HEAD       CELL-BOT
     1     3    50  -0.137000E+01  -0.327390E+00   0.356086E+01   0.000000E+00
     1     5    55  -0.137000E+01  -0.249954E+00   0.302614E+01   0.000000E+00
 
 
 SOLVING FOR HEAD 
                                                   Max.-Head-Change                         Max.-Flux-Residual
  Residual-Control   Outer-Iter.   Inner-Iter.     Column Row Layer    Maximum-Head-Change  Column Row Layer    Maximum-Flux-Residual          L2-NORM 
          0                 1           2             1    1     1      -0.3696847150E-01       1    7    1        -0.1044270893E-02      0.1652424200E-01
          0                 2           2             1    1     1       0.3439307714E-02       1    7    1         0.1044241352E-03      0.1604042190E-02
          0                 3           2             1    1     1      -0.2878368019E-03       1    7    1        -0.9398470902E-05      0.1477027504E-03
          0                 4           1             1    1     1       0.2142045617E-04       1    7    1         0.7528136341E-06      0.1253124510E-04
          0                 5           1             1    1     1      -0.1384482795E-05       2    4    1         0.7603928154E-07      0.9392144473E-06
          0                 6           1             1    1     1       0.7717763971E-07       2    4    1        -0.5956827920E-08      0.6077422622E-07

    ------------------------------------------------
       NWT REQUIRED            6 OUTER ITERATIONS 
       AND A TOTAL OF          9 INNER ITERATIONS.
    ------------------------------------------------

 NO OUTPUT CONTROL FOR STRESS PERIOD   40   TIME STEP   22
 
 WELLS WITH REDUCED PUMPING FOR STRESS PERIOD    40 TIME STEP    22
   LAY   ROW   COL         APPL.Q          ACT.Q        GW-HEAD       CELL-BOT
     1     3    50  -0.136999E+01  -0.327095E+00   0.355902E+01   0.000000E+00
     1     5    55  -0.136999E+01  -0.249711E+00   0.302450E+01   0.000000E+00
 
 
 SOLVING FOR HEAD 
                                                   Max.-Head-Change                         Max.-Flux-Residual
  Residual-Control   Outer-Iter.   Inner-Iter.     Column Row Layer    Maximum-Head-Change  Column Row Layer    Maximum-Flux-Residual          L2-NORM 
          0                 1           2             1    1     1      -0.4062159372E-01       1    7    1        -0.1043403533E-02      0.1650433556E-01
          0                 2           2             1    1     1       0.3772020064E-02       1    1    1         0.1043369982E-03      0.1600494958E-02
          0                 3           2             1    1     1      -0.3149525560E-03       1    7    1        -0.9390667088E-05      0.1473501249E-03
          0                 4           1             1    1     1       0.2336489007E-04      27    4    1        -0.7599290850E-06      0.1251641670E-04
          0                 5           1             1    1     1      -0.1498293383E-05       2    4    1         0.7685894587E-07      0.9375955122E-06
          0                 6           1             1    1     1       0.8279080662E-07       2    4    1        -0.6029839739E-08      0.6068036802E-07

    ------------------------------------------------
       NWT REQUIRED            6 OUTER ITERATIONS 
       AND A TOTAL OF          9 INNER ITERATIONS.
    ------------------------------------------------

 NO OUTPUT CONTROL FOR STRESS PERIOD   40   TIME STEP   23
 
 WELLS WITH REDUCED PUMPING FOR STRESS PERIOD    40 TIME STEP    23
   LAY   ROW   COL         APPL.Q          ACT.Q        GW-HEAD       CELL-BOT
     1     3    50  -0.137002E+01  -0.327086E+00   0.355891E+01   0.000000E+00
     1     5    55  -0.137002E+01  -0.249739E+00   0.302465E+01   0.000000E+00
 
 
 SOLVING FOR HEAD 
                                                   Max.-Head-Change                         Max.-Flux-Residual
  Residual-Control   Outer-Iter.   Inner-Iter.     Column Row Layer    Maximum-Head-Change  Column Row Layer    Maximum-Flux-Residual          L2-NORM 
          0                 1           2             1    1     1      -0.4458707553E-01       1    7    1        -0.1042449277E-02      0.1640495604E-01
          0                 2           2             1    1     1       0.4125246920E-02       1    1    1         0.1042405388E-03      0.1592308770E-02
          0                 3           2             1    1     1      -0.3430545691E-03       1    7    1        -0.9382041170E-05      0.1468484779E-03
          0                 4           1             1    1     1       0.2532850139E-04      26    4    1        -0.7839708775E-06      0.1250724096E-04
          0                 5           1             1    1     1      -0.1606938504E-05       2    4    1         0.8037622123E-07      0.9364722490E-06
          0                 6           1             1    1     1       0.8780273135E-07       2    4    1        -0.6267221409E-08      0.6059705183E-07

    ------------------------------------------------
       NWT REQUIRED            6 OUTER ITERATIONS 
       AND A TOTAL OF          9 INNER ITERATIONS.
    ------------------------------------------------

 NO OUTPUT CONTROL FOR STRESS PERIOD   40   TIME STEP   24
 
 WELLS WITH REDUCED PUMPING FOR STRESS PERIOD    40 TIME STEP    24
   LAY   ROW   COL         APPL.Q          ACT.Q        GW-HEAD       CELL-BOT
     1     3    50  -0.136999E+01  -0.326918E+00   0.355790E+01   0.000000E+00
     1     5    55  -0.136999E+01  -0.249653E+00   0.302410E+01   0.000000E+00
 
 
 SOLVING FOR HEAD 
                                                   Max.-Head-Change                         Max.-Flux-Residual
  Residual-Control   Outer-Iter.   Inner-Iter.     Column Row Layer    Maximum-Head-Change  Column Row Layer    Maximum-Flux-Residual          L2-NORM 
          0                 1           2             1    1     1      -0.4895947566E-01       1    7    1        -0.1040516203E-02      0.1636822540E-01
          0                 2           2             1    1     1       0.4521900765E-02       1    1    1         0.1040468978E-03      0.1588282510E-02
          0                 3           2             1    1     1      -0.3751983373E-03       1    7    1        -0.9364659616E-05      0.1465299063E-03
          0                 4           1             1    1     1       0.2761056877E-04      26    4    1        -0.7900981416E-06      0.1249773327E-04
          0                 5           1             1    1     1      -0.1732051131E-05       7    4    1         0.8106768234E-07      0.9334936700E-06
          0                 6           1             1    1     1       0.9347283226E-07       2    4    1        -0.6307864453E-08      0.6030550676E-07

    ------------------------------------------------
       NWT REQUIRED            6 OUTER ITERATIONS 
       AND A TOTAL OF          9 INNER ITERATIONS.
    ------------------------------------------------

 NO OUTPUT CONTROL FOR STRESS PERIOD   40   TIME STEP   25
 
 WELLS WITH REDUCED PUMPING FOR STRESS PERIOD    40 TIME STEP    25
   LAY   ROW   COL         APPL.Q          ACT.Q        GW-HEAD       CELL-BOT
     1     3    50  -0.137001E+01  -0.326617E+00   0.355598E+01   0.000000E+00
     1     5    55  -0.137001E+01  -0.249443E+00   0.302264E+01   0.000000E+00
 
 
 SOLVING FOR HEAD 
                                                   Max.-Head-Change                         Max.-Flux-Residual
  Residual-Control   Outer-Iter.   Inner-Iter.     Column Row Layer    Maximum-Head-Change  Column Row Layer    Maximum-Flux-Residual          L2-NORM 
          0                 1           3             1    1     1      -0.5380208964E-01       1    7    1        -0.1038837296E-02      0.1634533768E-01
          0                 2           2             1    1     1       0.4965343977E-02       1    7    1         0.1038790209E-03      0.1585526410E-02
          0                 3           2             1    1     1      -0.4114429143E-03       1    7    1        -0.9349594211E-05      0.1462821432E-03
          0                 4           1             1    1     1       0.3020138670E-04      26    4    1        -0.7962419701E-06      0.1248956010E-04
          0                 5           1             1    1     1      -0.1871798963E-05       7    4    1         0.8145213926E-07      0.9295564992E-06
          0                 6           1             1    1     1       0.9968247694E-07       9    4    1        -0.6285617360E-08      0.5990672843E-07

    ------------------------------------------------
       NWT REQUIRED            6 OUTER ITERATIONS 
       AND A TOTAL OF         10 INNER ITERATIONS.
    ------------------------------------------------

 NO OUTPUT CONTROL FOR STRESS PERIOD   40   TIME STEP   26
 
 WELLS WITH REDUCED PUMPING FOR STRESS PERIOD    40 TIME STEP    26
   LAY   ROW   COL         APPL.Q          ACT.Q        GW-HEAD       CELL-BOT
     1     3    50  -0.137001E+01  -0.326231E+00   0.355356E+01   0.000000E+00
     1     5    55  -0.137001E+01  -0.249155E+00   0.302069E+01   0.000000E+00
 
 
 SOLVING FOR HEAD 
                                                   Max.-Head-Change                         Max.-Flux-Residual
  Residual-Control   Outer-Iter.   Inner-Iter.     Column Row Layer    Maximum-Head-Change  Column Row Layer    Maximum-Flux-Residual          L2-NORM 
          0                 1           3             3    4     1      -0.5964765764E-01       1    5    1        -0.1037984434E-02      0.1637880098E-01
          0                 2           2             2    1     1       0.5497641830E-02       1    5    1         0.1037992535E-03      0.1584189597E-02
          0                 3           2             2    1     1      -0.4553334936E-03       1    5    1        -0.9342548934E-05      0.1457078104E-03
          0                 4           1             3    1     1       0.3335725254E-04      26    4    1        -0.8019218054E-06      0.1242116853E-04
          0                 5           1             3    1     1      -0.2036038183E-05      26    4    1         0.8050421307E-07      0.9181195908E-06
          0                 6           1             1    1     1       0.1065225328E-06      26    4    1        -0.6137808484E-08      0.5891113776E-07

    ------------------------------------------------
       NWT REQUIRED            6 OUTER ITERATIONS 
       AND A TOTAL OF         10 INNER ITERATIONS.
    ------------------------------------------------

 NO OUTPUT CONTROL FOR STRESS PERIOD   40   TIME STEP   27
 
 WELLS WITH REDUCED PUMPING FOR STRESS PERIOD    40 TIME STEP    27
   LAY   ROW   COL         APPL.Q          ACT.Q        GW-HEAD       CELL-BOT
     1     3    50  -0.137000E+01  -0.325785E+00   0.355076E+01   0.000000E+00
     1     5    55  -0.137000E+01  -0.248815E+00   0.301837E+01   0.000000E+00
 
 
 SOLVING FOR HEAD 
                                                   Max.-Head-Change                         Max.-Flux-Residual
  Residual-Control   Outer-Iter.   Inner-Iter.     Column Row Layer    Maximum-Head-Change  Column Row Layer    Maximum-Flux-Residual          L2-NORM 
          0                 1           3             1    4     1      -0.6644712793E-01       2    3    1        -0.1047700111E-02      0.1647527025E-01
          0                 2           2             1    1     1       0.6103836814E-02       2    3    1         0.1047729153E-03      0.1589989833E-02
          0                 3           2             1    1     1      -0.5046125978E-03       4    3    1        -0.9431467653E-05      0.1459320651E-03
          0                 4           1             1    1     1       0.3684454142E-04      26    4    1        -0.7673127822E-06      0.1243157878E-04
          0                 5           1             1    1     1      -0.2205416828E-05       9    4    1         0.8042192334E-07      0.9115369365E-06
          0                 6           1             1    1     1       0.1129153311E-06       9    4    1        -0.6232575345E-08      0.5818371522E-07

    ------------------------------------------------
       NWT REQUIRED            6 OUTER ITERATIONS 
       AND A TOTAL OF         10 INNER ITERATIONS.
    ------------------------------------------------

 NO OUTPUT CONTROL FOR STRESS PERIOD   40   TIME STEP   28
 
 WELLS WITH REDUCED PUMPING FOR STRESS PERIOD    40 TIME STEP    28
   LAY   ROW   COL         APPL.Q          ACT.Q        GW-HEAD       CELL-BOT
     1     3    50  -0.136998E+01  -0.325278E+00   0.354761E+01   0.000000E+00
     1     5    55  -0.136998E+01  -0.248432E+00   0.301579E+01   0.000000E+00
 
 
 SOLVING FOR HEAD 
                                                   Max.-Head-Change                         Max.-Flux-Residual
  Residual-Control   Outer-Iter.   Inner-Iter.     Column Row Layer    Maximum-Head-Change  Column Row Layer    Maximum-Flux-Residual          L2-NORM 
          0                 1           3             1    1     1      -0.7286688578E-01       1    5    1        -0.1060189849E-02      0.1653164775E-01
          0                 2           2             1    1     1       0.6711658202E-02       1    5    1         0.1060083109E-03      0.1599397792E-02
          0                 3           2             1    1     1      -0.5542294266E-03       1    5    1        -0.9541594805E-05      0.1470730772E-03
          0                 4           1             1    1     1       0.4035421740E-04       1    4    1        -0.7662327981E-06      0.1254850468E-04
          0                 5           1             1    1     1      -0.2358477616E-05       9    4    1         0.8304774468E-07      0.9117311366E-06
          0                 6           1             1    1     1       0.1178140450E-06       9    4    1        -0.6336367875E-08      0.5784751398E-07

    ------------------------------------------------
       NWT REQUIRED            6 OUTER ITERATIONS 
       AND A TOTAL OF         10 INNER ITERATIONS.
    ------------------------------------------------

 NO OUTPUT CONTROL FOR STRESS PERIOD   40   TIME STEP   29
 
 WELLS WITH REDUCED PUMPING FOR STRESS PERIOD    40 TIME STEP    29
   LAY   ROW   COL         APPL.Q          ACT.Q        GW-HEAD       CELL-BOT
     1     3    50  -0.137001E+01  -0.324716E+00   0.354401E+01   0.000000E+00
     1     5    55  -0.137001E+01  -0.248011E+00   0.301288E+01   0.000000E+00
 
 
 SOLVING FOR HEAD 
                                                   Max.-Head-Change                         Max.-Flux-Residual
  Residual-Control   Outer-Iter.   Inner-Iter.     Column Row Layer    Maximum-Head-Change  Column Row Layer    Maximum-Flux-Residual          L2-NORM 
          0                 1           3             1    1     1      -0.8001775707E-01       1    5    1        -0.1056797274E-02      0.1654879982E-01
          0                 2           2             1    1     1       0.7362057578E-02       1    5    1         0.1056693690E-03      0.1602191546E-02
          0                 3           2             1    1     1      -0.6069648222E-03       1    5    1        -0.9511158073E-05      0.1474124033E-03
          0                 4           1             1    1     1       0.4403409935E-04      26    4    1        -0.8068537269E-06      0.1258859069E-04
          0                 5           1             1    1     1      -0.2495429008E-05       9    4    1         0.8471851487E-07      0.9043262148E-06
          0                 6           1             1    1     1       0.1208123849E-06       9    4    1        -0.6383352513E-08      0.5702796235E-07

    ------------------------------------------------
       NWT REQUIRED            6 OUTER ITERATIONS 
       AND A TOTAL OF         10 INNER ITERATIONS.
    ------------------------------------------------

 OUTPUT CONTROL FOR STRESS PERIOD   40   TIME STEP   30
    PRINT HEAD FOR ALL LAYERS
    SAVE HEAD FOR ALL LAYERS
    PRINT BUDGET
    SAVE BUDGET
 
 WELLS WITH REDUCED PUMPING FOR STRESS PERIOD    40 TIME STEP    30
   LAY   ROW   COL         APPL.Q          ACT.Q        GW-HEAD       CELL-BOT
     1     3    50  -0.136989E+01  -0.324094E+00   0.354028E+01   0.000000E+00
     1     5    55  -0.136989E+01  -0.247534E+00   0.300977E+01   0.000000E+00

            WELLS   PERIOD   40   STEP  30
 WELL      1   LAYER   1   ROW     3   COL    50   RATE   -0.324094    
 WELL      2   LAYER   1   ROW     5   COL    55   RATE   -0.247534    
 

  HEAD DEP BOUNDS   PERIOD   40   STEP    30
 BOUNDARY      1   LAYER   1   ROW     1   COL   100   RATE    1.312932E-02
 BOUNDARY      2   LAYER   1   ROW     2   COL   100   RATE    1.309979E-02
 BOUNDARY      3   LAYER   1   ROW     3   COL   100   RATE    1.287375E-02
 BOUNDARY      4   LAYER   1   ROW     4   COL   100   RATE    8.032477E-03
 BOUNDARY      5   LAYER   1   ROW     5   COL   100   RATE    1.287375E-02
 BOUNDARY      6   LAYER   1   ROW     6   COL   100   RATE    1.309979E-02
 BOUNDARY      7   LAYER   1   ROW     7   COL   100   RATE    1.312932E-02



 STREAM LISTING     PERIOD     40   STEP       30

 LAYER ROW COL. STREAM  RCH.   FLOW INTO    STREAM     FLOW OUT OF   OVRLND.    DIRECT     STREAM      STREAM      STREAM     STREAM  STREAMBED   FLOW TO   CHNG. UNSAT. 
                SEG.NO.  NO.   STRM. RCH.    LOSS       STRM. RCH.   RUNOFF     PRECIP       ET         HEAD        DEPTH      WIDTH  CONDCTNC.   WAT. TAB.

   1    4    1     1     1    2.4600E+00  1.0252E-03   2.4590E+00  0.000E+00  0.000E+00  0.000E+00  1.41018E+02  1.168E+00  3.210E+00  6.147E-04  9.981E-04  2.712E-05
   1    4    2     1     2    2.4590E+00  1.0249E-03   2.4579E+00  0.000E+00  0.000E+00  0.000E+00  1.40718E+02  1.168E+00  3.209E+00  6.146E-04  9.977E-04  2.721E-05
   1    4    3     1     3    2.4579E+00  1.0246E-03   2.4569E+00  0.000E+00  0.000E+00  0.000E+00  1.40417E+02  1.167E+00  3.209E+00  6.145E-04  9.973E-04  2.727E-05
   1    4    4     1     4    2.4569E+00  1.0243E-03   2.4559E+00  0.000E+00  0.000E+00  0.000E+00  1.40117E+02  1.167E+00  3.209E+00  6.145E-04  9.970E-04  2.731E-05
   1    4    5     1     5    2.4559E+00  1.0240E-03   2.4549E+00  0.000E+00  0.000E+00  0.000E+00  1.39817E+02  1.167E+00  3.208E+00  6.144E-04  9.967E-04  2.734E-05
   1    4    6     1     6    2.4549E+00  1.0237E-03   2.4539E+00  0.000E+00  0.000E+00  0.000E+00  1.39517E+02  1.167E+00  3.208E+00  6.143E-04  9.964E-04  2.734E-05
   1    4    7     1     7    2.4539E+00  1.0234E-03   2.4528E+00  0.000E+00  0.000E+00  0.000E+00  1.39216E+02  1.166E+00  3.208E+00  6.142E-04  9.961E-04  2.732E-05
   1    4    8     1     8    2.4528E+00  1.0231E-03   2.4518E+00  0.000E+00  0.000E+00  0.000E+00  1.38916E+02  1.166E+00  3.208E+00  6.141E-04  9.959E-04  2.729E-05
   1    4    9     1     9    2.4518E+00  1.0228E-03   2.4508E+00  0.000E+00  0.000E+00  0.000E+00  1.38616E+02  1.166E+00  3.207E+00  6.140E-04  9.956E-04  2.723E-05
   1    4   10     1    10    2.4508E+00  1.0226E-03   2.4498E+00  0.000E+00  0.000E+00  0.000E+00  1.38316E+02  1.166E+00  3.207E+00  6.140E-04  9.966E-04  2.591E-05
   1    4   11     1    11    2.4498E+00  1.0223E-03   2.4487E+00  0.000E+00  0.000E+00  0.000E+00  1.38015E+02  1.165E+00  3.207E+00  6.139E-04  1.000E-03  2.213E-05
   1    4   12     1    12    2.4487E+00  1.0220E-03   2.4477E+00  0.000E+00  0.000E+00  0.000E+00  1.37715E+02  1.165E+00  3.206E+00  6.138E-04  1.000E-03  2.198E-05
   1    4   13     1    13    2.4477E+00  1.0217E-03   2.4467E+00  0.000E+00  0.000E+00  0.000E+00  1.37415E+02  1.165E+00  3.206E+00  6.137E-04  9.966E-04  2.505E-05
   1    4   14     1    14    2.4467E+00  1.0214E-03   2.4457E+00  0.000E+00  0.000E+00  0.000E+00  1.37115E+02  1.165E+00  3.206E+00  6.136E-04  9.908E-04  3.063E-05
   1    4   15     1    15    2.4457E+00  1.0211E-03   2.4447E+00  0.000E+00  0.000E+00  0.000E+00  1.36814E+02  1.164E+00  3.205E+00  6.135E-04  9.907E-04  3.037E-05
   1    4   16     1    16    2.4447E+00  1.0208E-03   2.4436E+00  0.000E+00  0.000E+00  0.000E+00  1.36514E+02  1.164E+00  3.205E+00  6.135E-04  9.907E-04  3.008E-05
   1    4   17     1    17    2.4436E+00  1.0205E-03   2.4426E+00  0.000E+00  0.000E+00  0.000E+00  1.36214E+02  1.164E+00  3.205E+00  6.134E-04  9.908E-04  2.976E-05
   1    4   18     1    18    2.4426E+00  1.0202E-03   2.4416E+00  0.000E+00  0.000E+00  0.000E+00  1.35913E+02  1.164E+00  3.205E+00  6.133E-04  9.908E-04  2.942E-05
   1    4   19     1    19    2.4416E+00  1.0199E-03   2.4406E+00  0.000E+00  0.000E+00  0.000E+00  1.35613E+02  1.163E+00  3.204E+00  6.132E-04  9.909E-04  2.904E-05
   1    4   20     1    20    2.4406E+00  1.0197E-03   2.4396E+00  0.000E+00  0.000E+00  0.000E+00  1.35313E+02  1.163E+00  3.204E+00  6.131E-04  9.910E-04  2.863E-05
   1    4   21     1    21    2.4396E+00  1.0194E-03   2.4385E+00  0.000E+00  0.000E+00  0.000E+00  1.35013E+02  1.163E+00  3.204E+00  6.131E-04  9.912E-04  2.820E-05
   1    4   22     1    22    2.4385E+00  1.0191E-03   2.4375E+00  0.000E+00  0.000E+00  0.000E+00  1.34713E+02  1.163E+00  3.203E+00  6.130E-04  9.913E-04  2.774E-05
   1    4   23     1    23    2.4375E+00  1.0188E-03   2.4365E+00  0.000E+00  0.000E+00  0.000E+00  1.34412E+02  1.162E+00  3.203E+00  6.129E-04  9.915E-04  2.725E-05
   1    4   24     1    24    2.4365E+00  1.0185E-03   2.4355E+00  0.000E+00  0.000E+00  0.000E+00  1.34112E+02  1.162E+00  3.203E+00  6.128E-04  9.917E-04  2.675E-05
   1    4   25     1    25    2.4355E+00  1.0182E-03   2.4345E+00  0.000E+00  0.000E+00  0.000E+00  1.33812E+02  1.162E+00  3.202E+00  6.127E-04  1.004E-03  1.386E-05
   1    4   26     1    26    2.4345E+00  1.0179E-03   2.4334E+00  0.000E+00  0.000E+00  0.000E+00  1.33512E+02  1.161E+00  3.202E+00  6.126E-04  1.006E-03  1.199E-05
   1    4   27     1    27    2.4334E+00  1.0176E-03   2.4324E+00  0.000E+00  0.000E+00  0.000E+00  1.33211E+02  1.161E+00  3.202E+00  6.126E-04  1.006E-03  1.127E-05
   1    4   28     1    28    2.4324E+00  1.0173E-03   2.4314E+00  0.000E+00  0.000E+00  0.000E+00  1.32911E+02  1.161E+00  3.202E+00  6.125E-04  1.007E-03  1.053E-05
   1    4   29     1    29    2.4314E+00  1.0170E-03   2.4304E+00  0.000E+00  0.000E+00  0.000E+00  1.32611E+02  1.161E+00  3.201E+00  6.124E-04  1.007E-03  9.758E-06
   1    4   30     1    30    2.4304E+00  1.0168E-03   2.4294E+00  0.000E+00  0.000E+00  0.000E+00  1.32310E+02  1.160E+00  3.201E+00  6.123E-04  1.008E-03  8.971E-06
   1    4   31     1    31    2.4294E+00  1.0165E-03   2.4284E+00  0.000E+00  0.000E+00  0.000E+00  1.32010E+02  1.160E+00  3.201E+00  6.122E-04  1.008E-03  8.159E-06
   1    4   32     1    32    2.4284E+00  1.0162E-03   2.4273E+00  0.000E+00  0.000E+00  0.000E+00  1.31710E+02  1.160E+00  3.200E+00  6.122E-04  1.011E-03  5.086E-06
   1    4   33     1    33    2.4273E+00  1.0159E-03   2.4263E+00  0.000E+00  0.000E+00  0.000E+00  1.31410E+02  1.160E+00  3.200E+00  6.121E-04  1.019E-03 -3.161E-06
   1    4   34     1    34    2.4263E+00  1.0156E-03   2.4253E+00  0.000E+00  0.000E+00  0.000E+00  1.31109E+02  1.159E+00  3.200E+00  6.120E-04  1.033E-03 -1.737E-05
   1    4   35     1    35    2.4253E+00  1.0153E-03   2.4243E+00  0.000E+00  0.000E+00  0.000E+00  1.30809E+02  1.159E+00  3.199E+00  6.119E-04  1.054E-03 -3.902E-05
   1    4   36     1    36    2.4243E+00  1.0150E-03   2.4233E+00  0.000E+00  0.000E+00  0.000E+00  1.30509E+02  1.159E+00  3.199E+00  6.118E-04  1.084E-03 -6.910E-05
   1    4   37     1    37    2.4233E+00  1.0147E-03   2.4223E+00  0.000E+00  0.000E+00  0.000E+00  1.30209E+02  1.159E+00  3.199E+00  6.117E-04  1.116E-03 -1.011E-04
   1    4   38     1    38    2.4223E+00  1.0144E-03   2.4212E+00  0.000E+00  0.000E+00  0.000E+00  1.29908E+02  1.158E+00  3.199E+00  6.117E-04  1.141E-03 -1.268E-04
   1    4   39     1    39    2.4212E+00  1.0141E-03   2.4202E+00  0.000E+00  0.000E+00  0.000E+00  1.29608E+02  1.158E+00  3.198E+00  6.116E-04  1.159E-03 -1.446E-04
   1    4   40     1    40    2.4202E+00  1.0139E-03   2.4192E+00  0.000E+00  0.000E+00  0.000E+00  1.29308E+02  1.158E+00  3.198E+00  6.115E-04  1.167E-03 -1.529E-04
   1    4   41     1    41    2.4192E+00  1.0136E-03   2.4182E+00  0.000E+00  0.000E+00  0.000E+00  1.29008E+02  1.158E+00  3.198E+00  6.114E-04  1.168E-03 -1.546E-04
   1    4   42     1    42    2.4182E+00  1.0133E-03   2.4172E+00  0.000E+00  0.000E+00  0.000E+00  1.28707E+02  1.157E+00  3.197E+00  6.113E-04  1.170E-03 -1.563E-04
   1    4   43     1    43    2.4172E+00  1.0130E-03   2.4162E+00  0.000E+00  0.000E+00  0.000E+00  1.28407E+02  1.157E+00  3.197E+00  6.113E-04  1.171E-03 -1.581E-04
   1    4   44     1    44    2.4162E+00  1.0127E-03   2.4152E+00  0.000E+00  0.000E+00  0.000E+00  1.28107E+02  1.157E+00  3.197E+00  6.112E-04  1.173E-03 -1.601E-04
   1    4   45     1    45    2.4152E+00  1.0124E-03   2.4142E+00  0.000E+00  0.000E+00  0.000E+00  1.27807E+02  1.157E+00  3.196E+00  6.111E-04  1.175E-03 -1.624E-04
   1    4   46     1    46    2.4142E+00  1.0121E-03   2.4131E+00  0.000E+00  0.000E+00  0.000E+00  1.27506E+02  1.156E+00  3.196E+00  6.110E-04  1.177E-03 -1.650E-04
   1    4   47     1    47    2.4131E+00  1.0118E-03   2.4121E+00  0.000E+00  0.000E+00  0.000E+00  1.27206E+02  1.156E+00  3.196E+00  6.109E-04  1.180E-03 -1.680E-04
   1    4   48     1    48    2.4121E+00  1.0115E-03   2.4111E+00  0.000E+00  0.000E+00  0.000E+00  1.26906E+02  1.156E+00  3.196E+00  6.108E-04  1.183E-03 -1.716E-04
   1    4   49     1    49    2.4111E+00  1.0113E-03   2.4101E+00  0.000E+00  0.000E+00  0.000E+00  1.26606E+02  1.156E+00  3.195E+00  6.108E-04  1.187E-03 -1.760E-04
   1    4   50     1    50    2.4101E+00  1.0110E-03   2.4091E+00  0.000E+00  0.000E+00  0.000E+00  1.26305E+02  1.155E+00  3.195E+00  6.107E-04  1.216E-03 -2.054E-04
   1    4   51     1    51    2.4091E+00  1.0107E-03   2.4081E+00  0.000E+00  0.000E+00  0.000E+00  1.26005E+02  1.155E+00  3.195E+00  6.106E-04  1.214E-03 -2.029E-04
   1    4   52     1    52    2.4081E+00  1.0104E-03   2.4071E+00  0.000E+00  0.000E+00  0.000E+00  1.25705E+02  1.155E+00  3.194E+00  6.105E-04  1.212E-03 -2.014E-04
   1    4   53     1    53    2.4071E+00  1.0101E-03   2.4061E+00  0.000E+00  0.000E+00  0.000E+00  1.25405E+02  1.155E+00  3.194E+00  6.104E-04  1.211E-03 -2.013E-04
   1    4   54     1    54    2.4061E+00  1.0098E-03   2.4051E+00  0.000E+00  0.000E+00  0.000E+00  1.25104E+02  1.154E+00  3.194E+00  6.104E-04  1.213E-03 -2.029E-04
   1    4   55     1    55    2.4051E+00  1.0095E-03   2.4040E+00  0.000E+00  0.000E+00  0.000E+00  1.24804E+02  1.154E+00  3.193E+00  6.103E-04  1.222E-03 -2.127E-04
   1    4   56     1    56    2.4040E+00  1.0092E-03   2.4030E+00  0.000E+00  0.000E+00  0.000E+00  1.24504E+02  1.154E+00  3.193E+00  6.102E-04  1.187E-03 -1.780E-04
   1    4   57     1    57    2.4030E+00  1.0090E-03   2.4020E+00  0.000E+00  0.000E+00  0.000E+00  1.24204E+02  1.154E+00  3.193E+00  6.101E-04  1.184E-03 -1.746E-04
   1    4   58     1    58    2.4020E+00  1.0087E-03   2.4010E+00  0.000E+00  0.000E+00  0.000E+00  1.23903E+02  1.153E+00  3.193E+00  6.100E-04  1.180E-03 -1.718E-04
   1    4   59     1    59    2.4010E+00  1.0084E-03   2.4000E+00  0.000E+00  0.000E+00  0.000E+00  1.23603E+02  1.153E+00  3.192E+00  6.099E-04  1.178E-03 -1.695E-04
   1    4   60     1    60    2.4000E+00  1.0081E-03   2.3990E+00  0.000E+00  0.000E+00  0.000E+00  1.23303E+02  1.153E+00  3.192E+00  6.099E-04  1.176E-03 -1.676E-04
   1    4   61     1    61    2.3990E+00  1.0078E-03   2.3980E+00  0.000E+00  0.000E+00  0.000E+00  1.23003E+02  1.153E+00  3.192E+00  6.098E-04  1.174E-03 -1.660E-04
   1    4   62     1    62    2.3980E+00  1.0075E-03   2.3970E+00  0.000E+00  0.000E+00  0.000E+00  1.22702E+02  1.152E+00  3.191E+00  6.097E-04  1.172E-03 -1.646E-04
   1    4   63     1    63    2.3970E+00  1.0072E-03   2.3960E+00  0.000E+00  0.000E+00  0.000E+00  1.22402E+02  1.152E+00  3.191E+00  6.096E-04  1.171E-03 -1.635E-04
   1    4   64     1    64    2.3960E+00  1.0069E-03   2.3950E+00  0.000E+00  0.000E+00  0.000E+00  1.22102E+02  1.152E+00  3.191E+00  6.095E-04  1.170E-03 -1.626E-04
   1    4   65     1    65    2.3950E+00  1.0067E-03   2.3940E+00  0.000E+00  0.000E+00  0.000E+00  1.21802E+02  1.152E+00  3.190E+00  6.095E-04  1.168E-03 -1.618E-04
   1    4   66     1    66    2.3940E+00  1.0064E-03   2.3930E+00  0.000E+00  0.000E+00  0.000E+00  1.21501E+02  1.151E+00  3.190E+00  6.094E-04  1.163E-03 -1.571E-04
   1    4   67     1    67    2.3930E+00  1.0061E-03   2.3920E+00  0.000E+00  0.000E+00  0.000E+00  1.21201E+02  1.151E+00  3.190E+00  6.093E-04  1.147E-03 -1.406E-04
   1    4   68     1    68    2.3920E+00  1.0058E-03   2.3909E+00  0.000E+00  0.000E+00  0.000E+00  1.20901E+02  1.151E+00  3.190E+00  6.092E-04  1.120E-03 -1.140E-04
   1    4   69     1    69    2.3909E+00  1.0055E-03   2.3899E+00  0.000E+00  0.000E+00  0.000E+00  1.20601E+02  1.151E+00  3.189E+00  6.091E-04  1.084E-03 -7.808E-05
   1    4   70     1    70    2.3899E+00  1.0052E-03   2.3889E+00  0.000E+00  0.000E+00  0.000E+00  1.20300E+02  1.150E+00  3.189E+00  6.090E-04  1.051E-03 -4.576E-05
   1    4   71     1    71    2.3889E+00  1.0049E-03   2.3879E+00  0.000E+00  0.000E+00  0.000E+00  1.20000E+02  1.150E+00  3.189E+00  6.090E-04  1.029E-03 -2.427E-05
   1    4   72     1    72    2.3879E+00  1.0046E-03   2.3869E+00  0.000E+00  0.000E+00  0.000E+00  1.19700E+02  1.150E+00  3.188E+00  6.089E-04  1.017E-03 -1.261E-05
   1    4   73     1    73    2.3869E+00  1.0044E-03   2.3859E+00  0.000E+00  0.000E+00  0.000E+00  1.19400E+02  1.150E+00  3.188E+00  6.088E-04  1.014E-03 -9.756E-06
   1    4   74     1    74    2.3859E+00  1.0041E-03   2.3849E+00  0.000E+00  0.000E+00  0.000E+00  1.19099E+02  1.149E+00  3.188E+00  6.087E-04  1.014E-03 -1.013E-05
   1    4   75     1    75    2.3849E+00  1.0038E-03   2.3839E+00  0.000E+00  0.000E+00  0.000E+00  1.18799E+02  1.149E+00  3.187E+00  6.086E-04  1.014E-03 -1.058E-05
   1    4   76     1    76    2.3839E+00  1.0035E-03   2.3829E+00  0.000E+00  0.000E+00  0.000E+00  1.18499E+02  1.149E+00  3.187E+00  6.086E-04  1.015E-03 -1.108E-05
   1    4   77     1    77    2.3829E+00  1.0032E-03   2.3819E+00  0.000E+00  0.000E+00  0.000E+00  1.18199E+02  1.149E+00  3.187E+00  6.085E-04  1.015E-03 -1.163E-05
   1    4   78     1    78    2.3819E+00  1.0029E-03   2.3809E+00  0.000E+00  0.000E+00  0.000E+00  1.17898E+02  1.148E+00  3.187E+00  6.084E-04  1.015E-03 -1.225E-05
   1    4   79     1    79    2.3809E+00  1.0026E-03   2.3799E+00  0.000E+00  0.000E+00  0.000E+00  1.17598E+02  1.148E+00  3.186E+00  6.083E-04  1.016E-03 -1.295E-05
   1    4   80     1    80    2.3799E+00  1.0024E-03   2.3789E+00  0.000E+00  0.000E+00  0.000E+00  1.17298E+02  1.148E+00  3.186E+00  6.082E-04  1.004E-03 -1.707E-06
   1    4   81     1    81    2.3789E+00  1.0021E-03   2.3779E+00  0.000E+00  0.000E+00  0.000E+00  1.16998E+02  1.148E+00  3.186E+00  6.082E-04  1.005E-03 -2.559E-06
   1    4   82     1    82    2.3779E+00  1.0018E-03   2.3769E+00  0.000E+00  0.000E+00  0.000E+00  1.16697E+02  1.147E+00  3.185E+00  6.081E-04  1.005E-03 -3.476E-06
   1    4   83     1    83    2.3769E+00  1.0015E-03   2.3759E+00  0.000E+00  0.000E+00  0.000E+00  1.16397E+02  1.147E+00  3.185E+00  6.080E-04  1.006E-03 -4.448E-06
   1    4   84     1    84    2.3759E+00  1.0012E-03   2.3749E+00  0.000E+00  0.000E+00  0.000E+00  1.16097E+02  1.147E+00  3.185E+00  6.079E-04  1.007E-03 -5.471E-06
   1    4   85     1    85    2.3749E+00  1.0009E-03   2.3739E+00  0.000E+00  0.000E+00  0.000E+00  1.15797E+02  1.147E+00  3.184E+00  6.078E-04  1.007E-03 -6.537E-06
   1    4   86     1    86    2.3739E+00  1.0006E-03   2.3729E+00  0.000E+00  0.000E+00  0.000E+00  1.15496E+02  1.146E+00  3.184E+00  6.077E-04  1.008E-03 -7.639E-06
   1    4   87     1    87    2.3729E+00  1.0004E-03   2.3719E+00  0.000E+00  0.000E+00  0.000E+00  1.15196E+02  1.146E+00  3.184E+00  6.077E-04  1.009E-03 -8.770E-06
   1    4   88     1    88    2.3719E+00  1.0001E-03   2.3709E+00  0.000E+00  0.000E+00  0.000E+00  1.14896E+02  1.146E+00  3.184E+00  6.076E-04  1.010E-03 -9.923E-06
   1    4   89     1    89    2.3709E+00  9.9978E-04   2.3699E+00  0.000E+00  0.000E+00  0.000E+00  1.14596E+02  1.146E+00  3.183E+00  6.075E-04  1.011E-03 -1.109E-05
   1    4   90     1    90    2.3699E+00  9.9950E-04   2.3689E+00  0.000E+00  0.000E+00  0.000E+00  1.14295E+02  1.145E+00  3.183E+00  6.074E-04  1.012E-03 -1.228E-05
   1    4   91     1    91    2.3689E+00  9.9921E-04   2.3679E+00  0.000E+00  0.000E+00  0.000E+00  1.13995E+02  1.145E+00  3.183E+00  6.073E-04  1.013E-03 -1.347E-05
   1    4   92     1    92    2.3679E+00  9.9893E-04   2.3669E+00  0.000E+00  0.000E+00  0.000E+00  1.13695E+02  1.145E+00  3.182E+00  6.073E-04  1.014E-03 -1.467E-05
   1    4   93     1    93    2.3669E+00  9.9864E-04   2.3659E+00  0.000E+00  0.000E+00  0.000E+00  1.13395E+02  1.145E+00  3.182E+00  6.072E-04  1.015E-03 -1.588E-05
   1    4   94     1    94    2.3659E+00  9.9836E-04   2.3649E+00  0.000E+00  0.000E+00  0.000E+00  1.13094E+02  1.144E+00  3.182E+00  6.071E-04  1.015E-03 -1.711E-05
   1    4   95     1    95    2.3649E+00  9.9807E-04   2.3639E+00  0.000E+00  0.000E+00  0.000E+00  1.12794E+02  1.144E+00  3.181E+00  6.070E-04  1.016E-03 -1.834E-05
   1    4   96     1    96    2.3639E+00  9.9778E-04   2.3629E+00  0.000E+00  0.000E+00  0.000E+00  1.12494E+02  1.144E+00  3.181E+00  6.069E-04  1.017E-03 -1.959E-05
   1    4   97     1    97    2.3629E+00  9.9750E-04   2.3619E+00  0.000E+00  0.000E+00  0.000E+00  1.12194E+02  1.144E+00  3.181E+00  6.068E-04  1.018E-03 -2.086E-05
   1    4   98     1    98    2.3619E+00  9.9721E-04   2.3609E+00  0.000E+00  0.000E+00  0.000E+00  1.11893E+02  1.143E+00  3.181E+00  6.068E-04  1.019E-03 -2.214E-05
   1    4   99     1    99    2.3609E+00  9.9693E-04   2.3599E+00  0.000E+00  0.000E+00  0.000E+00  1.11593E+02  1.143E+00  3.180E+00  6.067E-04  1.020E-03 -2.343E-05
   1    4  100     1   100    2.3599E+00  9.9664E-04   2.3589E+00  0.000E+00  0.000E+00  0.000E+00  1.11293E+02  1.143E+00  3.180E+00  6.066E-04  1.021E-03 -2.420E-05



1
  VOLUMETRIC BUDGET FOR UNSATURATED ZONE BENEATH STREAMS AT END OF TIME STEP    30 STRESS PERIOD  40
  ------------------------------------------------------------------------------------------------

    CUMULATIVE VOLUMES             L**3    RATES FOR THIS TIME STEP         L**3/T
    ------------------                     ------------------------


          STREAM LOSS =     31201314.0000            STREAM LOSS =            0.1011
    CHANGE IN STORAGE =      1248596.2500      CHANGE IN STORAGE =       -5.2091E-03
       RECHARGE TO GW =     29959472.0000         RECHARGE TO GW =            0.1063

             TOTAL IN =     31201314.0000               TOTAL IN =            0.1063

            TOTAL OUT =     31208068.0000              TOTAL OUT =            0.1063

             IN - OUT =        -6754.0000               IN - OUT =        2.8312E-07

  PERCENT DISCREPANCY =           -0.01      PERCENT DISCREPANCY =             0.00



1
              HEAD IN LAYER 1 AT END OF TIME STEP 30 IN STRESS PERIOD 40
  ---------------------------------------------------------------------------

          1      2      3      4      5      6      7      8      9     10
         11     12     13     14     15     16     17     18     19     20
         21     22     23     24     25     26     27     28     29     30
         31     32     33     34     35     36     37     38     39     40
         41     42     43     44     45     46     47     48     49     50
         51     52     53     54     55     56     57     58     59     60
         61     62     63     64     65     66     67     68     69     70
         71     72     73     74     75     76     77     78     79     80
         81     82     83     84     85     86     87     88     89     90
         91     92     93     94     95     96     97     98     99    100
 .........................................................................
   1  86.2 86.1 86.1 85.9 85.8 85.6 85.4 85.1 84.8 84.4
      84.0 83.6 83.1 82.6 82.0 81.4 80.8 80.1 79.3 78.6
      77.7 76.8 75.9 74.9 73.9 72.8 71.7 70.5 69.2 67.9
      66.5 65.0 63.5 61.8 60.1 58.3 56.5 54.5 52.3 50.1
      47.7 45.1 42.4 39.4 36.2 32.6 28.5 23.7 17.8 11.2
      10.4 10.6 10.8 11.3 13.0 16.7 20.7 24.4 27.7 30.7
      33.4 35.8 38.1 40.2 42.2 44.1 45.9 47.5 49.1 50.6
      52.0 53.3 54.6 55.8 57.0 58.1 59.1 60.2 61.1 62.1
      62.9 63.8 64.6 65.4 66.2 66.9 67.6 68.3 68.9 69.6
      70.2 70.8 71.4 71.9 72.5 73.0 73.5 74.0 74.5 75.0
   2  86.2 86.1 86.1 85.9 85.8 85.6 85.4 85.1 84.8 84.4
      84.0 83.6 83.1 82.6 82.0 81.4 80.8 80.1 79.3 78.6
      77.7 76.9 75.9 74.9 73.9 72.8 71.7 70.5 69.2 67.9
      66.5 65.0 63.5 61.8 60.1 58.3 56.5 54.5 52.3 50.1
      47.7 45.1 42.4 39.4 36.2 32.6 28.5 23.7 17.6 9.3
      10.1 10.6 10.7 11.0 12.4 16.4 20.6 24.3 27.7 30.7
      33.4 35.8 38.1 40.3 42.2 44.1 45.9 47.5 49.1 50.6
      52.0 53.3 54.6 55.8 57.0 58.1 59.1 60.2 61.1 62.1
      62.9 63.8 64.6 65.4 66.2 66.9 67.6 68.3 68.9 69.6
      70.2 70.8 71.4 71.9 72.5 73.0 73.5 74.0 74.5 75.0
   3  86.2 86.1 86.1 85.9 85.8 85.6 85.4 85.1 84.8 84.4
      84.0 83.6 83.1 82.6 82.0 81.4 80.8 80.1 79.3 78.6
      77.7 76.9 75.9 74.9 73.9 72.8 71.7 70.5 69.2 67.9
      66.5 65.0 63.5 61.8 60.1 58.3 56.5 54.5 52.3 50.1
      47.7 45.1 42.4 39.4 36.2 32.6 28.5 23.7 17.3 3.5
      9.9 10.6 10.6 10.4 10.9 15.9 20.5 24.3 27.7 30.7
      33.4 35.8 38.1 40.3 42.2 44.1 45.9 47.5 49.1 50.6
      52.0 53.3 54.6 55.8 57.0 58.1 59.1 60.2 61.1 62.1
      62.9 63.8 64.6 65.4 66.2 66.9 67.6 68.3 68.9 69.6
      70.2 70.8 71.4 71.9 72.5 73.0 73.5 74.0 74.5 75.0
   4  86.2 86.1 86.1 85.9 85.8 85.6 85.4 85.1 84.8 84.4
      84.0 83.6 83.1 82.6 82.0 81.4 80.8 80.1 79.4 78.6
      77.7 76.9 75.9 74.9 73.9 72.8 71.7 70.5 69.2 67.9
      66.5 65.0 63.5 61.9 60.1 58.4 56.5 54.5 52.3 50.1
      47.7 45.2 42.4 39.4 36.2 32.6 28.6 23.9 18.0 9.5
      10.7 10.8 10.5 9.8 8.2 15.4 20.3 24.3 27.7 30.7
      33.4 35.8 38.1 40.3 42.2 44.1 45.9 47.5 49.1 50.6
      52.0 53.3 54.6 55.8 57.0 58.1 59.1 60.2 61.1 62.1
      63.0 63.8 64.6 65.4 66.2 66.9 67.6 68.3 68.9 69.6
      70.2 70.8 71.4 71.9 72.5 73.0 73.5 74.0 74.5 75.0
   5  86.2 86.1 86.1 85.9 85.8 85.6 85.4 85.1 84.8 84.4
      84.0 83.6 83.1 82.6 82.0 81.4 80.8 80.1 79.3 78.6
      77.7 76.9 75.9 74.9 73.9 72.8 71.7 70.5 69.2 67.9
      66.5 65.0 63.5 61.8 60.1 58.3 56.5 54.5 52.3 50.1
      47.7 45.1 42.4 39.4 36.2 32.6 28.6 24.0 18.6 12.5
      11.4 11.0 10.4 9.2 3.0 14.8 20.2 24.2 27.6 30.6
      33.4 35.8 38.1 40.3 42.2 44.1 45.9 47.5 49.1 50.6
      52.0 53.3 54.6 55.8 57.0 58.1 59.1 60.2 61.1 62.1
      62.9 63.8 64.6 65.4 66.2 66.9 67.6 68.3 68.9 69.6
      70.2 70.8 71.4 71.9 72.5 73.0 73.5 74.0 74.5 75.0
   6  86.2 86.1 86.1 85.9 85.8 85.6 85.4 85.1 84.8 84.4
      84.0 83.6 83.1 82.6 82.0 81.4 80.8 80.1 79.3 78.6
      77.7 76.9 75.9 74.9 73.9 72.8 71.7 70.5 69.2 67.9
      66.5 65.0 63.5 61.8 60.1 58.3 56.5 54.5 52.3 50.1
      47.7 45.1 42.4 39.4 36.2 32.6 28.7 24.2 19.2 14.2
      12.1 11.1 10.4 9.4 8.0 15.0 20.1 24.2 27.6 30.6
      33.4 35.8 38.1 40.3 42.2 44.1 45.9 47.5 49.1 50.6
      52.0 53.3 54.6 55.8 57.0 58.1 59.1 60.2 61.1 62.1
      62.9 63.8 64.6 65.4 66.2 66.9 67.6 68.3 68.9 69.6
      70.2 70.8 71.4 71.9 72.5 73.0 73.5 74.0 74.5 75.0
   7  86.2 86.1 86.1 85.9 85.8 85.6 85.4 85.1 84.8 84.4
      84.0 83.6 83.1 82.6 82.0 81.4 80.8 80.1 79.3 78.6
      77.7 76.8 75.9 74.9 73.9 72.8 71.7 70.5 69.2 67.9
      66.5 65.0 63.5 61.8 60.1 58.3 56.5 54.5 52.3 50.1
      47.7 45.1 42.4 39.4 36.2 32.6 28.7 24.3 19.5 14.9
      12.4 11.3 10.4 9.6 9.8 15.2 20.1 24.2 27.6 30.6
      33.3 35.8 38.1 40.2 42.2 44.1 45.9 47.5 49.1 50.6
      52.0 53.3 54.6 55.8 57.0 58.1 59.1 60.2 61.1 62.1
      62.9 63.8 64.6 65.4 66.2 66.9 67.6 68.3 68.9 69.6
      70.2 70.8 71.4 71.9 72.5 73.0 73.5 74.0 74.5 75.0

 HEAD WILL BE SAVED ON UNIT   51 AT END OF TIME STEP   30, STRESS PERIOD   40
1
  VOLUMETRIC BUDGET FOR ENTIRE MODEL AT END OF TIME STEP   30, STRESS PERIOD  40
  ------------------------------------------------------------------------------

     CUMULATIVE VOLUMES      L**3       RATES FOR THIS TIME STEP      L**3/T
     ------------------                 ------------------------

           IN:                                      IN:
           ---                                      ---
             STORAGE     =   111060616.0000               STORAGE     =           0.3791
       CONSTANT HEAD     =           0.0000         CONSTANT HEAD     =           0.0000
               WELLS     =           0.0000                 WELLS     =           0.0000
     HEAD DEP BOUNDS     =     1877375.2500       HEAD DEP BOUNDS     =       8.6238E-02
      STREAM LEAKAGE     =    29959336.0000        STREAM LEAKAGE     =           0.1063

                TOTAL IN =   142897328.0000                  TOTAL IN =           0.5716

          OUT:                                     OUT:
          ----                                     ----
             STORAGE     =     3383738.5000               STORAGE     =           0.0000
       CONSTANT HEAD     =           0.0000         CONSTANT HEAD     =           0.0000
               WELLS     =   123127720.0000                 WELLS     =           0.5716
     HEAD DEP BOUNDS     =    16385952.0000       HEAD DEP BOUNDS     =           0.0000
      STREAM LEAKAGE     =           0.0000        STREAM LEAKAGE     =           0.0000

               TOTAL OUT =   142897408.0000                 TOTAL OUT =           0.5716

                IN - OUT =         -80.0000                  IN - OUT =           0.0000

     PERCENT DISCREPANCY =          -0.00         PERCENT DISCREPANCY =           0.00






         TIME SUMMARY AT END OF TIME STEP   30 IN STRESS PERIOD   40
                    SECONDS     MINUTES      HOURS       DAYS        YEARS
                    -----------------------------------------------------------
   TIME STEP LENGTH 2.49961E+05  4166.0      69.434      2.8931     7.92080E-03
 STRESS PERIOD TIME 2.59200E+06  43200.      720.00      30.000     8.21355E-02
         TOTAL TIME 1.03680E+08 1.72800E+06  28800.      1200.0      3.2854    
1
1
                            STRESS PERIOD NO.   41, LENGTH =   2592000.    
                            -----------------------------------------------

                              NUMBER OF TIME STEPS =    30

                               MULTIPLIER FOR DELT =     1.100

                            INITIAL TIME STEP SIZE =   15757.40    

 REUSING NON-PARAMETER WELLS FROM LAST STRESS PERIOD

      1 WELL 

 REUSING NON-PARAMETER GHB CELLS FROM LAST STRESS PERIOD

      7 GHB CELLS



 CLASSIFICATION & COUNT OF STREAM SEGMENTS BASED ON SOURCE OF INFLOW:

                HEADWATER     DIVERSION     RECEIVES TRIBUTARY FLOW
                ---------     ---------     -----------------------
                     1              0               0



                    INPUT DATA FOR EACH STREAM SEGMENT
 ---------------------------------------------------------------------------------------------

 SEGMENT    SEG.     INFLOW   OVERLAND   STREAM    STREAM   ICALC  OUTFLOW  DIVERSION PRIORITY
    NO.    LENGTH     RATE     RUNOFF      ET       PPT.    METH.  TO SEG.  FROM SEG.    NO.

      1  2.000E+04 1.970E+01 0.000E+00 0.000E+00 0.000E+00    2        0        0        0


         STREAMBED PROPERTIES AND STREAM DIMENSIONS

 SEGMENT     BED HYD. COND.      BED THICKNESS     ELEV.-TOP OF BED     WIDTH OF STREAM     DEPTH OF STREAM    STREAM ROUGHNESS
    No.     UPPER     LOWER     UPPER     LOWER     UPPER     LOWER     UPPER     LOWER     UPPER     LOWER   CHANNEL      BANK

     1  3.500E-07 3.500E-07                                                                                 3.000E-02 4.000E-02

  EIGHT POINT CROSS-SECTION DATA FOR SEGMENTS WITH ICALC = 2
    X VALUES X VALUES START FROM LEFT SIDE LOOKING DOWNSTREAM

     SEGMENT NO.        X1        X2        X3        X4        X5        X6        X7        X8
            1      0.000E+00 2.000E+00 4.000E+00 6.000E+00 8.000E+00 1.000E+01 1.200E+01 1.400E+01

    Z VALUES ARE RELATIVE TO STREAMBED ELEVATION

     SEGMENT NO.          Z1        Z2        Z3        Z4        Z5        Z6        Z7        Z8
            1      6.000E+00 4.500E+00 3.500E+00 0.000E+00 3.000E-01 3.500E+00 4.500E+00 6.000E+00



 
 SOLVING FOR HEAD 
                                                   Max.-Head-Change                         Max.-Flux-Residual
  Residual-Control   Outer-Iter.   Inner-Iter.     Column Row Layer    Maximum-Head-Change  Column Row Layer    Maximum-Flux-Residual          L2-NORM 
          0                 1           2            50    3     1       0.3104719623E+00      50    3    1         0.1063474887E+00      0.1348336213E+00
          0                 2           2            50    3     1      -0.3238890975E-01      50    3    1        -0.1140302577E-01      0.1446399529E-01
          0                 3           2            50    3     1       0.2865778097E-02      50    3    1         0.1018850381E-02      0.1292910804E-02
          0                 4           2            50    3     1      -0.2275230160E-03      50    3    1        -0.8166833734E-04      0.1036737261E-03
          0                 5           1            50    3     1       0.1584798478E-04      50    3    1         0.5740837581E-05      0.7289357606E-05
          0                 6           1            50    3     1      -0.9516322657E-06      50    3    1        -0.3478738015E-06      0.4417735434E-06

    ------------------------------------------------
       NWT REQUIRED            6 OUTER ITERATIONS 
       AND A TOTAL OF         10 INNER ITERATIONS.
    ------------------------------------------------

 NO OUTPUT CONTROL FOR STRESS PERIOD   41   TIME STEP    1
 
 WELLS WITH REDUCED PUMPING FOR STRESS PERIOD    41 TIME STEP     1
   LAY   ROW   COL         APPL.Q          ACT.Q        GW-HEAD       CELL-BOT
     1     3    50  -0.920152E+00  -0.248218E+00   0.382101E+01   0.000000E+00
     1     5    55  -0.920152E+00  -0.188592E+00   0.323189E+01   0.000000E+00
 
 
 SOLVING FOR HEAD 
                                                   Max.-Head-Change                         Max.-Flux-Residual
  Residual-Control   Outer-Iter.   Inner-Iter.     Column Row Layer    Maximum-Head-Change  Column Row Layer    Maximum-Flux-Residual          L2-NORM 
          0                 1           2            50    3     1       0.1992634882E+00      50    3    1         0.6413878208E-01      0.8370274418E-01
          0                 2           2            50    3     1      -0.2019712763E-01      50    3    1        -0.6704534948E-02      0.8729530684E-02
          0                 3           2            50    3     1       0.1787228100E-02      50    3    1         0.6007212148E-03      0.7830079076E-03
          0                 4           2            50    3     1      -0.1417727004E-03      50    3    1        -0.4813869265E-04      0.6280907692E-04
          0                 5           1            50    3     1       0.9874375536E-05      50    3    1         0.3383972346E-05      0.4418375625E-05
          0                 6           1            50    3     1      -0.5929282699E-06      50    3    1        -0.2050558356E-06      0.2678655866E-06

    ------------------------------------------------
       NWT REQUIRED            6 OUTER ITERATIONS 
       AND A TOTAL OF         10 INNER ITERATIONS.
    ------------------------------------------------

 NO OUTPUT CONTROL FOR STRESS PERIOD   41   TIME STEP    2
 
 WELLS WITH REDUCED PUMPING FOR STRESS PERIOD    41 TIME STEP     2
   LAY   ROW   COL         APPL.Q          ACT.Q        GW-HEAD       CELL-BOT
     1     3    50  -0.920152E+00  -0.268462E+00   0.400174E+01   0.000000E+00
     1     5    55  -0.920152E+00  -0.203964E+00   0.337968E+01   0.000000E+00
 
 
 SOLVING FOR HEAD 
                                                   Max.-Head-Change                         Max.-Flux-Residual
  Residual-Control   Outer-Iter.   Inner-Iter.     Column Row Layer    Maximum-Head-Change  Column Row Layer    Maximum-Flux-Residual          L2-NORM 
          0                 1           2            50    3     1       0.1256108036E+00      50    3    1         0.3761400607E-01      0.5218299760E-01
          0                 2           2            50    3     1      -0.1244630565E-01      50    3    1        -0.3871696063E-02      0.5307570707E-02
          0                 3           2            50    3     1       0.1098981235E-02      50    3    1         0.3474623371E-03      0.4773463983E-03
          0                 4           1            50    3     1      -0.8707391490E-04      50    3    1        -0.2783931840E-04      0.3834619927E-04
          0                 5           1            50    3     1       0.6063477174E-05      50    3    1         0.1957024008E-05      0.2701353862E-05
          0                 6           1            50    3     1      -0.3640881810E-06      50    3    1        -0.1185877990E-06      0.1639399245E-06

    ------------------------------------------------
       NWT REQUIRED            6 OUTER ITERATIONS 
       AND A TOTAL OF          9 INNER ITERATIONS.
    ------------------------------------------------

 NO OUTPUT CONTROL FOR STRESS PERIOD   41   TIME STEP    3
 
 WELLS WITH REDUCED PUMPING FOR STRESS PERIOD    41 TIME STEP     3
   LAY   ROW   COL         APPL.Q          ACT.Q        GW-HEAD       CELL-BOT
     1     3    50  -0.919881E+00  -0.281384E+00   0.411592E+01   0.000000E+00
     1     5    55  -0.919881E+00  -0.214105E+00   0.347580E+01   0.000000E+00
 
 
 SOLVING FOR HEAD 
                                                   Max.-Head-Change                         Max.-Flux-Residual
  Residual-Control   Outer-Iter.   Inner-Iter.     Column Row Layer    Maximum-Head-Change  Column Row Layer    Maximum-Flux-Residual          L2-NORM 
          0                 1           2            50    3     1       0.7805905478E-01      50    3    1         0.2148419712E-01      0.3408145127E-01
          0                 2           2            50    3     1      -0.7575389092E-02      50    3    1        -0.2189696102E-02      0.3377057601E-02
          0                 3           2            50    3     1       0.6659961651E-03      50    3    1         0.1967079211E-03      0.3045268833E-03
          0                 4           1            50    3     1      -0.5267416268E-04      50    3    1        -0.1575904100E-04      0.2455306167E-04
          0                 5           1            50    3     1       0.3666606636E-05      50    3    1         0.1107817835E-05      0.1735908487E-05
          0                 6           1            50    3     1      -0.2201548503E-06      50    3    1        -0.6712882705E-07      0.1056400070E-06

    ------------------------------------------------
       NWT REQUIRED            6 OUTER ITERATIONS 
       AND A TOTAL OF          9 INNER ITERATIONS.
    ------------------------------------------------

 NO OUTPUT CONTROL FOR STRESS PERIOD   41   TIME STEP    4
 
 WELLS WITH REDUCED PUMPING FOR STRESS PERIOD    41 TIME STEP     4
   LAY   ROW   COL         APPL.Q          ACT.Q        GW-HEAD       CELL-BOT
     1     3    50  -0.920127E+00  -0.289635E+00   0.418702E+01   0.000000E+00
     1     5    55  -0.920127E+00  -0.220748E+00   0.353708E+01   0.000000E+00
 
 
 SOLVING FOR HEAD 
                                                   Max.-Head-Change                         Max.-Flux-Residual
  Residual-Control   Outer-Iter.   Inner-Iter.     Column Row Layer    Maximum-Head-Change  Column Row Layer    Maximum-Flux-Residual          L2-NORM 
          0                 1           2            50    3     1       0.4904420938E-01      50    3    1         0.1222447678E-01      0.2493177623E-01
          0                 2           2            50    3     1      -0.4663084167E-02      50    3    1        -0.1237864650E-02      0.2418561181E-02
          0                 3           2            50    3     1       0.4073304921E-03      50    3    1         0.1112716080E-03      0.2187473661E-03
          0                 4           1            50    3     1      -0.3213324752E-04      50    3    1        -0.8913853756E-05      0.1774638124E-04
          0                 5           1            50    3     1       0.2235267618E-05      50    3    1         0.6266158763E-06      0.1262617454E-05
          0                 6           1            50    3     1      -0.1341983248E-06      50    3    1        -0.3796965875E-07      0.7722615510E-07

    ------------------------------------------------
       NWT REQUIRED            6 OUTER ITERATIONS 
       AND A TOTAL OF          9 INNER ITERATIONS.
    ------------------------------------------------

 NO OUTPUT CONTROL FOR STRESS PERIOD   41   TIME STEP    5
 
 WELLS WITH REDUCED PUMPING FOR STRESS PERIOD    41 TIME STEP     5
   LAY   ROW   COL         APPL.Q          ACT.Q        GW-HEAD       CELL-BOT
     1     3    50  -0.920063E+00  -0.294790E+00   0.423178E+01   0.000000E+00
     1     5    55  -0.920063E+00  -0.224972E+00   0.357622E+01   0.000000E+00
 
 
 SOLVING FOR HEAD 
                                                   Max.-Head-Change                         Max.-Flux-Residual
  Residual-Control   Outer-Iter.   Inner-Iter.     Column Row Layer    Maximum-Head-Change  Column Row Layer    Maximum-Flux-Residual          L2-NORM 
          0                 1           2            50    3     1       0.3163779471E-01      50    3    1         0.7021557057E-02      0.2073927784E-01
          0                 2           2            50    2     1      -0.3029336303E-02      50    3    1        -0.7077981183E-03      0.1994600210E-02
          0                 3           2            50    2     1       0.2694704395E-03      50    3    1         0.6365104364E-04      0.1809311129E-03
          0                 4           1            50    2     1      -0.2137156023E-04      50    3    1        -0.5098809824E-05      0.1477456603E-04
          0                 5           1            50    2     1       0.1488465707E-05      50    3    1         0.3584260991E-06      0.1058550908E-05
          0                 6           1            50    2     1      -0.8937519898E-07      50    3    1        -0.2171839272E-07      0.6512490918E-07

    ------------------------------------------------
       NWT REQUIRED            6 OUTER ITERATIONS 
       AND A TOTAL OF          9 INNER ITERATIONS.
    ------------------------------------------------

 NO OUTPUT CONTROL FOR STRESS PERIOD   41   TIME STEP    6
 
 WELLS WITH REDUCED PUMPING FOR STRESS PERIOD    41 TIME STEP     6
   LAY   ROW   COL         APPL.Q          ACT.Q        GW-HEAD       CELL-BOT
     1     3    50  -0.919947E+00  -0.298109E+00   0.426070E+01   0.000000E+00
     1     5    55  -0.919947E+00  -0.227709E+00   0.360164E+01   0.000000E+00
 
 
 SOLVING FOR HEAD 
                                                   Max.-Head-Change                         Max.-Flux-Residual
  Residual-Control   Outer-Iter.   Inner-Iter.     Column Row Layer    Maximum-Head-Change  Column Row Layer    Maximum-Flux-Residual          L2-NORM 
          0                 1           2            50    2     1       0.2793546028E-01      50    3    1         0.4120702121E-02      0.1887151348E-01
          0                 2           2            50    2     1      -0.2755703981E-02      50    3    1        -0.4139959863E-03      0.1816090700E-02
          0                 3           2            50    2     1       0.2450859246E-03      50    3    1         0.3724153309E-04      0.1651194707E-03
          0                 4           1            50    2     1      -0.1943563297E-04      50    3    1        -0.2983169477E-05      0.1355061490E-04
          0                 5           1            50    2     1       0.1353558003E-05      50    3    1         0.2097009279E-06      0.9764053312E-06
          0                 6           1            50    2     1      -0.8127311855E-07      50    3    1        -0.1270626804E-07      0.6037815162E-07

    ------------------------------------------------
       NWT REQUIRED            6 OUTER ITERATIONS 
       AND A TOTAL OF          9 INNER ITERATIONS.
    ------------------------------------------------

 NO OUTPUT CONTROL FOR STRESS PERIOD   41   TIME STEP    7
 
 WELLS WITH REDUCED PUMPING FOR STRESS PERIOD    41 TIME STEP     7
   LAY   ROW   COL         APPL.Q          ACT.Q        GW-HEAD       CELL-BOT
     1     3    50  -0.919894E+00  -0.300351E+00   0.428014E+01   0.000000E+00
     1     5    55  -0.919894E+00  -0.229549E+00   0.361862E+01   0.000000E+00
 
 
 SOLVING FOR HEAD 
                                                   Max.-Head-Change                         Max.-Flux-Residual
  Residual-Control   Outer-Iter.   Inner-Iter.     Column Row Layer    Maximum-Head-Change  Column Row Layer    Maximum-Flux-Residual          L2-NORM 
          0                 1           2            50    2     1       0.2507814983E-01      50    2    1         0.3276528891E-02      0.1798007405E-01
          0                 2           2            50    2     1      -0.2474263590E-02      50    2    1        -0.3284405449E-03      0.1735527167E-02
          0                 3           2            50    2     1       0.2200192459E-03      50    2    1         0.2955141263E-04      0.1580657523E-03
          0                 4           1            50    2     1      -0.1744573805E-04      50    2    1        -0.2367135930E-05      0.1301910318E-04
          0                 5           1            50    2     1       0.1214892288E-05      50    2    1         0.1664069310E-06      0.9423222457E-06
          0                 6           1            50    2     1      -0.7294511676E-07      50    2    1        -0.1008360453E-07      0.5852163965E-07

    ------------------------------------------------
       NWT REQUIRED            6 OUTER ITERATIONS 
       AND A TOTAL OF          9 INNER ITERATIONS.
    ------------------------------------------------

 NO OUTPUT CONTROL FOR STRESS PERIOD   41   TIME STEP    8
 
 WELLS WITH REDUCED PUMPING FOR STRESS PERIOD    41 TIME STEP     8
   LAY   ROW   COL         APPL.Q          ACT.Q        GW-HEAD       CELL-BOT
     1     3    50  -0.919918E+00  -0.301954E+00   0.429384E+01   0.000000E+00
     1     5    55  -0.919918E+00  -0.230847E+00   0.363043E+01   0.000000E+00
 
 
 SOLVING FOR HEAD 
                                                   Max.-Head-Change                         Max.-Flux-Residual
  Residual-Control   Outer-Iter.   Inner-Iter.     Column Row Layer    Maximum-Head-Change  Column Row Layer    Maximum-Flux-Residual          L2-NORM 
          0                 1           2            50    2     1       0.2240376731E-01      50    2    1         0.2673948420E-02      0.1750083965E-01
          0                 2           2            50    2     1      -0.2210274885E-02      50    2    1        -0.2680693656E-03      0.1693302289E-02
          0                 3           2            50    2     1       0.1965121207E-03      50    2    1         0.2411925671E-04      0.1544155417E-03
          0                 4           1            50    2     1      -0.1557968937E-04      50    2    1        -0.1932009734E-05      0.1275557295E-04
          0                 5           1            50    2     1       0.1084852357E-05      50    2    1         0.1358180482E-06      0.9267938549E-06
          0                 6           1            50    2     1      -0.6513471481E-07      50    2    1        -0.8230038831E-08      0.5778290947E-07

    ------------------------------------------------
       NWT REQUIRED            6 OUTER ITERATIONS 
       AND A TOTAL OF          9 INNER ITERATIONS.
    ------------------------------------------------

 NO OUTPUT CONTROL FOR STRESS PERIOD   41   TIME STEP    9
 
 WELLS WITH REDUCED PUMPING FOR STRESS PERIOD    41 TIME STEP     9
   LAY   ROW   COL         APPL.Q          ACT.Q        GW-HEAD       CELL-BOT
     1     3    50  -0.919962E+00  -0.303157E+00   0.430404E+01   0.000000E+00
     1     5    55  -0.919962E+00  -0.231805E+00   0.363909E+01   0.000000E+00
 
 
 SOLVING FOR HEAD 
                                                   Max.-Head-Change                         Max.-Flux-Residual
  Residual-Control   Outer-Iter.   Inner-Iter.     Column Row Layer    Maximum-Head-Change  Column Row Layer    Maximum-Flux-Residual          L2-NORM 
          0                 1           2            50    2     1       0.2004009312E-01      50    2    1         0.2171639959E-02      0.1721030770E-01
          0                 2           2            50    2     1      -0.1976627655E-02      50    2    1        -0.2176900689E-03      0.1667693239E-02
          0                 3           2            50    2     1       0.1757067622E-03      50    2    1         0.1958667997E-04      0.1522370681E-03
          0                 4           1            50    2     1      -0.1392799122E-04      50    2    1        -0.1568937521E-05      0.1260808671E-04
          0                 5           1            50    2     1       0.9697371157E-06      50    2    1         0.1102945053E-06      0.9193158430E-06

    ------------------------------------------------
       NWT REQUIRED            5 OUTER ITERATIONS 
       AND A TOTAL OF          8 INNER ITERATIONS.
    ------------------------------------------------

 NO OUTPUT CONTROL FOR STRESS PERIOD   41   TIME STEP   10
 
 WELLS WITH REDUCED PUMPING FOR STRESS PERIOD    41 TIME STEP    10
   LAY   ROW   COL         APPL.Q          ACT.Q        GW-HEAD       CELL-BOT
     1     3    50  -0.919922E+00  -0.304091E+00   0.431216E+01   0.000000E+00
     1     5    55  -0.919922E+00  -0.232537E+00   0.364586E+01   0.000000E+00
 
 
 SOLVING FOR HEAD 
                                                   Max.-Head-Change                         Max.-Flux-Residual
  Residual-Control   Outer-Iter.   Inner-Iter.     Column Row Layer    Maximum-Head-Change  Column Row Layer    Maximum-Flux-Residual          L2-NORM 
          0                 1           2            50    1     1       0.1819973577E-01      50    2    1         0.1765967697E-02      0.1700915011E-01
          0                 2           2            50    1     1      -0.1802467205E-02      50    2    1        -0.1769941038E-03      0.1649441807E-02
          0                 3           2            50    1     1       0.1606362844E-03      50    2    1         0.1592538065E-04      0.1507021753E-03
          0                 4           1            50    1     1      -0.1274641009E-04      50    2    1        -0.1275656505E-05      0.1251116982E-04
          0                 5           1            50    1     1       0.8875987143E-06      50    2    1         0.8967720330E-07      0.9153533896E-06

    ------------------------------------------------
       NWT REQUIRED            5 OUTER ITERATIONS 
       AND A TOTAL OF          8 INNER ITERATIONS.
    ------------------------------------------------

 NO OUTPUT CONTROL FOR STRESS PERIOD   41   TIME STEP   11
 
 WELLS WITH REDUCED PUMPING FOR STRESS PERIOD    41 TIME STEP    11
   LAY   ROW   COL         APPL.Q          ACT.Q        GW-HEAD       CELL-BOT
     1     3    50  -0.920030E+00  -0.304890E+00   0.431870E+01   0.000000E+00
     1     5    55  -0.920030E+00  -0.233154E+00   0.365122E+01   0.000000E+00
 
 
 SOLVING FOR HEAD 
                                                   Max.-Head-Change                         Max.-Flux-Residual
  Residual-Control   Outer-Iter.   Inner-Iter.     Column Row Layer    Maximum-Head-Change  Column Row Layer    Maximum-Flux-Residual          L2-NORM 
          0                 1           2            50    1     1       0.1778727182E-01      50    1    1         0.1457430957E-02      0.1686681214E-01
          0                 2           2            50    1     1      -0.1761790802E-02      50    1    1        -0.1458859238E-03      0.1636269504E-02
          0                 3           2            50    1     1       0.1569997435E-03      50    1    1         0.1312830767E-04      0.1496139040E-03
          0                 4           1            50    1     1      -0.1245722984E-04      50    1    1        -0.1051589163E-05      0.1244915865E-04
          0                 5           1            50    1     1       0.8673272716E-06      50    1    1         0.7389102769E-07      0.9137934262E-06

    ------------------------------------------------
       NWT REQUIRED            5 OUTER ITERATIONS 
       AND A TOTAL OF          8 INNER ITERATIONS.
    ------------------------------------------------

 NO OUTPUT CONTROL FOR STRESS PERIOD   41   TIME STEP   12
 
 WELLS WITH REDUCED PUMPING FOR STRESS PERIOD    41 TIME STEP    12
   LAY   ROW   COL         APPL.Q          ACT.Q        GW-HEAD       CELL-BOT
     1     3    50  -0.920047E+00  -0.305550E+00   0.432430E+01   0.000000E+00
     1     5    55  -0.920047E+00  -0.233657E+00   0.365577E+01   0.000000E+00
 
 
 SOLVING FOR HEAD 
                                                   Max.-Head-Change                         Max.-Flux-Residual
  Residual-Control   Outer-Iter.   Inner-Iter.     Column Row Layer    Maximum-Head-Change  Column Row Layer    Maximum-Flux-Residual          L2-NORM 
          0                 1           2            50    1     1       0.1708720402E-01      50    1    1         0.1294896285E-02      0.1675847533E-01
          0                 2           2            50    1     1      -0.1692453784E-02      50    1    1        -0.1296409902E-03      0.1626022499E-02
          0                 3           2            50    1     1       0.1508073756E-03      50    1    1         0.1166618079E-04      0.1487872947E-03
          0                 4           1            50    1     1      -0.1196507012E-04      50    1    1        -0.9344734178E-06      0.1240801807E-04
          0                 5           1            50    1     1       0.8328768313E-06      50    1    1         0.6564712882E-07      0.9136778482E-06

    ------------------------------------------------
       NWT REQUIRED            5 OUTER ITERATIONS 
       AND A TOTAL OF          8 INNER ITERATIONS.
    ------------------------------------------------

 NO OUTPUT CONTROL FOR STRESS PERIOD   41   TIME STEP   13
 
 WELLS WITH REDUCED PUMPING FOR STRESS PERIOD    41 TIME STEP    13
   LAY   ROW   COL         APPL.Q          ACT.Q        GW-HEAD       CELL-BOT
     1     3    50  -0.920047E+00  -0.306126E+00   0.432923E+01   0.000000E+00
     1     5    55  -0.920047E+00  -0.234091E+00   0.365972E+01   0.000000E+00
 
 
 SOLVING FOR HEAD 
                                                   Max.-Head-Change                         Max.-Flux-Residual
  Residual-Control   Outer-Iter.   Inner-Iter.     Column Row Layer    Maximum-Head-Change  Column Row Layer    Maximum-Flux-Residual          L2-NORM 
          0                 1           2             1    1     1      -0.1740197384E-01      50    1    1         0.1130846120E-02      0.1667287851E-01
          0                 2           2             1    1     1       0.1649055609E-02      50    1    1        -0.1132289578E-03      0.1617841182E-02
          0                 3           2            50    1     1       0.1427120642E-03      50    1    1         0.1018916915E-04      0.1481311403E-03
          0                 4           1            50    1     1      -0.1132178179E-04      50    1    1        -0.8161641748E-06      0.1237889068E-04
          0                 5           1            50    1     1       0.7878486670E-06       1    4    1         0.6610577685E-07      0.9142823299E-06

    ------------------------------------------------
       NWT REQUIRED            5 OUTER ITERATIONS 
       AND A TOTAL OF          8 INNER ITERATIONS.
    ------------------------------------------------

 NO OUTPUT CONTROL FOR STRESS PERIOD   41   TIME STEP   14
 
 WELLS WITH REDUCED PUMPING FOR STRESS PERIOD    41 TIME STEP    14
   LAY   ROW   COL         APPL.Q          ACT.Q        GW-HEAD       CELL-BOT
     1     3    50  -0.920020E+00  -0.306630E+00   0.433362E+01   0.000000E+00
     1     5    55  -0.920020E+00  -0.234471E+00   0.366324E+01   0.000000E+00
 
 
 SOLVING FOR HEAD 
                                                   Max.-Head-Change                         Max.-Flux-Residual
  Residual-Control   Outer-Iter.   Inner-Iter.     Column Row Layer    Maximum-Head-Change  Column Row Layer    Maximum-Flux-Residual          L2-NORM 
          0                 1           2             1    1     1      -0.1912979853E-01       1    1    1        -0.1051172221E-02      0.1660367896E-01
          0                 2           2             1    1     1       0.1808399962E-02       1    1    1         0.1051160776E-03      0.1611073792E-02
          0                 3           2             1    1     1      -0.1542675902E-03       1    1    1        -0.9460566677E-05      0.1475986907E-03
          0                 4           1             1    1     1       0.1174794663E-04       1    1    1         0.7577899748E-06      0.1235918872E-04
          0                 5           1             1    1     1      -0.7873423655E-06       1    4    1         0.6748973647E-07      0.9154554505E-06

    ------------------------------------------------
       NWT REQUIRED            5 OUTER ITERATIONS 
       AND A TOTAL OF          8 INNER ITERATIONS.
    ------------------------------------------------

 NO OUTPUT CONTROL FOR STRESS PERIOD   41   TIME STEP   15
 
 WELLS WITH REDUCED PUMPING FOR STRESS PERIOD    41 TIME STEP    15
   LAY   ROW   COL         APPL.Q          ACT.Q        GW-HEAD       CELL-BOT
     1     3    50  -0.920019E+00  -0.307087E+00   0.433753E+01   0.000000E+00
     1     5    55  -0.920019E+00  -0.234814E+00   0.366636E+01   0.000000E+00
 
 
 SOLVING FOR HEAD 
                                                   Max.-Head-Change                         Max.-Flux-Residual
  Residual-Control   Outer-Iter.   Inner-Iter.     Column Row Layer    Maximum-Head-Change  Column Row Layer    Maximum-Flux-Residual          L2-NORM 
          0                 1           2             1    1     1      -0.2102837259E-01       1    1    1        -0.1050713659E-02      0.1654626631E-01
          0                 2           2             1    1     1       0.1983161527E-02       1    1    1         0.1050700437E-03      0.1605477143E-02
          0                 3           2             1    1     1      -0.1687080032E-03       1    1    1        -0.9456441553E-05      0.1471623493E-03
          0                 4           1             1    1     1       0.1280702455E-04       1    7    1         0.7574593082E-06      0.1234574964E-04
          0                 5           1             1    1     1      -0.8549984477E-06       1    4    1         0.6880087966E-07      0.9168885095E-06

    ------------------------------------------------
       NWT REQUIRED            5 OUTER ITERATIONS 
       AND A TOTAL OF          8 INNER ITERATIONS.
    ------------------------------------------------

 NO OUTPUT CONTROL FOR STRESS PERIOD   41   TIME STEP   16
 
 WELLS WITH REDUCED PUMPING FOR STRESS PERIOD    41 TIME STEP    16
   LAY   ROW   COL         APPL.Q          ACT.Q        GW-HEAD       CELL-BOT
     1     3    50  -0.920019E+00  -0.307500E+00   0.434106E+01   0.000000E+00
     1     5    55  -0.920019E+00  -0.235117E+00   0.366911E+01   0.000000E+00
 
 
 SOLVING FOR HEAD 
                                                   Max.-Head-Change                         Max.-Flux-Residual
  Residual-Control   Outer-Iter.   Inner-Iter.     Column Row Layer    Maximum-Head-Change  Column Row Layer    Maximum-Flux-Residual          L2-NORM 
          0                 1           2             1    1     1      -0.2311441065E-01       1    1    1        -0.1050209964E-02      0.1649799382E-01
          0                 2           2             1    1     1       0.2174849696E-02       1    1    1         0.1050194738E-03      0.1600695534E-02
          0                 3           2             1    1     1      -0.1845092160E-03       1    1    1        -0.9451910389E-05      0.1467996604E-03
          0                 4           1             1    1     1       0.1396196004E-04       1    1    1         0.7570960765E-06      0.1233789345E-04
          0                 5           1             1    1     1      -0.9282597075E-06       2    4    1         0.7003748692E-07      0.9185472936E-06

    ------------------------------------------------
       NWT REQUIRED            5 OUTER ITERATIONS 
       AND A TOTAL OF          8 INNER ITERATIONS.
    ------------------------------------------------

 NO OUTPUT CONTROL FOR STRESS PERIOD   41   TIME STEP   17
 
 WELLS WITH REDUCED PUMPING FOR STRESS PERIOD    41 TIME STEP    17
   LAY   ROW   COL         APPL.Q          ACT.Q        GW-HEAD       CELL-BOT
     1     3    50  -0.920040E+00  -0.307876E+00   0.434422E+01   0.000000E+00
     1     5    55  -0.920040E+00  -0.235393E+00   0.367157E+01   0.000000E+00
 
 
 SOLVING FOR HEAD 
                                                   Max.-Head-Change                         Max.-Flux-Residual
  Residual-Control   Outer-Iter.   Inner-Iter.     Column Row Layer    Maximum-Head-Change  Column Row Layer    Maximum-Flux-Residual          L2-NORM 
          0                 1           2             1    1     1      -0.2540622278E-01       1    1    1        -0.1049656640E-02      0.1645601320E-01
          0                 2           2             1    1     1       0.2385120002E-02       1    1    1         0.1049639157E-03      0.1596624486E-02
          0                 3           2             1    1     1      -0.2018042543E-03       1    1    1        -0.9446932681E-05      0.1465041030E-03
          0                 4           1             1    1     1       0.1522198795E-04       1    7    1         0.7566970535E-06      0.1233490864E-04
          0                 5           1             1    1     1      -0.1007558967E-05       2    4    1         0.7121950318E-07      0.9203173062E-06
          0                 6           1             1    1     1       0.5765904468E-07       2    4    1        -0.5527692082E-08      0.5918516196E-07

    ------------------------------------------------
       NWT REQUIRED            6 OUTER ITERATIONS 
       AND A TOTAL OF          9 INNER ITERATIONS.
    ------------------------------------------------

 NO OUTPUT CONTROL FOR STRESS PERIOD   41   TIME STEP   18
 
 WELLS WITH REDUCED PUMPING FOR STRESS PERIOD    41 TIME STEP    18
   LAY   ROW   COL         APPL.Q          ACT.Q        GW-HEAD       CELL-BOT
     1     3    50  -0.920030E+00  -0.308211E+00   0.434711E+01   0.000000E+00
     1     5    55  -0.920030E+00  -0.235639E+00   0.367383E+01   0.000000E+00
 
 
 SOLVING FOR HEAD 
                                                   Max.-Head-Change                         Max.-Flux-Residual
  Residual-Control   Outer-Iter.   Inner-Iter.     Column Row Layer    Maximum-Head-Change  Column Row Layer    Maximum-Flux-Residual          L2-NORM 
          0                 1           2             1    1     1      -0.2792386834E-01       1    7    1        -0.1049049528E-02      0.1641870320E-01
          0                 2           2             1    1     1       0.2615788206E-02       1    7    1         0.1049029507E-03      0.1592975177E-02
          0                 3           2             1    1     1      -0.2207392849E-03       1    7    1        -0.9441470974E-05      0.1462377331E-03
          0                 4           1             1    1     1       0.1659724166E-04       1    7    1         0.7562592299E-06      0.1233291998E-04
          0                 5           1             1    1     1      -0.1093328324E-05       2    4    1         0.7233011701E-07      0.9218204279E-06
          0                 6           1             1    1     1       0.6223488363E-07       2    4    1        -0.5633935984E-08      0.5942578795E-07

    ------------------------------------------------
       NWT REQUIRED            6 OUTER ITERATIONS 
       AND A TOTAL OF          9 INNER ITERATIONS.
    ------------------------------------------------

 NO OUTPUT CONTROL FOR STRESS PERIOD   41   TIME STEP   19
 
 WELLS WITH REDUCED PUMPING FOR STRESS PERIOD    41 TIME STEP    19
   LAY   ROW   COL         APPL.Q          ACT.Q        GW-HEAD       CELL-BOT
     1     3    50  -0.919980E+00  -0.308508E+00   0.434978E+01   0.000000E+00
     1     5    55  -0.919980E+00  -0.235857E+00   0.367592E+01   0.000000E+00
 
 
 SOLVING FOR HEAD 
                                                   Max.-Head-Change                         Max.-Flux-Residual
  Residual-Control   Outer-Iter.   Inner-Iter.     Column Row Layer    Maximum-Head-Change  Column Row Layer    Maximum-Flux-Residual          L2-NORM 
          0                 1           2             1    1     1      -0.3068928266E-01     100    4    1         0.1913132624E-02      0.1660992752E-01
          0                 2           2             1    1     1       0.2868840971E-02     100    4    1        -0.1900528647E-03      0.1609465327E-02
          0                 3           2             1    1     1      -0.2414744073E-03     100    4    1         0.1698203960E-04      0.1475053911E-03
          0                 4           1             1    1     1       0.1809877303E-04     100    4    1        -0.1349507670E-05      0.1243244170E-04
          0                 5           1             1    1     1      -0.1185968347E-05     100    4    1         0.9403038348E-07      0.9289053624E-06
          0                 6           1             1    1     1       0.6711162744E-07       2    4    1        -0.5732680108E-08      0.5992524402E-07

    ------------------------------------------------
       NWT REQUIRED            6 OUTER ITERATIONS 
       AND A TOTAL OF          9 INNER ITERATIONS.
    ------------------------------------------------

 NO OUTPUT CONTROL FOR STRESS PERIOD   41   TIME STEP   20
 
 WELLS WITH REDUCED PUMPING FOR STRESS PERIOD    41 TIME STEP    20
   LAY   ROW   COL         APPL.Q          ACT.Q        GW-HEAD       CELL-BOT
     1     3    50  -0.919972E+00  -0.308778E+00   0.435211E+01   0.000000E+00
     1     5    55  -0.919972E+00  -0.236057E+00   0.367776E+01   0.000000E+00
 
 
 SOLVING FOR HEAD 
                                                   Max.-Head-Change                         Max.-Flux-Residual
  Residual-Control   Outer-Iter.   Inner-Iter.     Column Row Layer    Maximum-Head-Change  Column Row Layer    Maximum-Flux-Residual          L2-NORM 
          0                 1           2             1    1     1      -0.3372647987E-01      95    4    1         0.1904418310E-02      0.1681146578E-01
          0                 2           2             1    1     1       0.3146454712E-02      95    4    1        -0.1586447618E-03      0.1619081181E-02
          0                 3           2             1    1     1      -0.2641852375E-03      95    4    1         0.1172226877E-04      0.1476811426E-03
          0                 4           1             1    1     1       0.1973864622E-04      95    4    1        -0.7609841717E-06      0.1242462537E-04
          0                 5           1             1    1     1      -0.1285827893E-05       2    4    1         0.7433547111E-07      0.9275007655E-06
          0                 6           1             1    1     1       0.7228379479E-07       2    4    1        -0.5823530103E-08      0.5988343670E-07

    ------------------------------------------------
       NWT REQUIRED            6 OUTER ITERATIONS 
       AND A TOTAL OF          9 INNER ITERATIONS.
    ------------------------------------------------

 NO OUTPUT CONTROL FOR STRESS PERIOD   41   TIME STEP   21
 
 WELLS WITH REDUCED PUMPING FOR STRESS PERIOD    41 TIME STEP    21
   LAY   ROW   COL         APPL.Q          ACT.Q        GW-HEAD       CELL-BOT
     1     3    50  -0.920000E+00  -0.309016E+00   0.435406E+01   0.000000E+00
     1     5    55  -0.920000E+00  -0.236236E+00   0.367931E+01   0.000000E+00
 
 
 SOLVING FOR HEAD 
                                                   Max.-Head-Change                         Max.-Flux-Residual
  Residual-Control   Outer-Iter.   Inner-Iter.     Column Row Layer    Maximum-Head-Change  Column Row Layer    Maximum-Flux-Residual          L2-NORM 
          0                 1           2             1    1     1      -0.3706171100E-01      90    4    1         0.1903478802E-02      0.1676217634E-01
          0                 2           2             1    1     1       0.3451009574E-02      90    4    1        -0.1662529755E-03      0.1617979771E-02
          0                 3           2             1    1     1      -0.2890639727E-03      90    4    1         0.1300129444E-04      0.1478415623E-03
          0                 4           1             1    1     1       0.2152997387E-04      90    4    1        -0.9031580230E-06      0.1246031207E-04
          0                 5           1             1    1     1      -0.1393169890E-05       2    4    1         0.7523084022E-07      0.9302029566E-06
          0                 6           1             1    1     1       0.7773305988E-07       2    4    1        -0.5905992140E-08      0.6009162831E-07

    ------------------------------------------------
       NWT REQUIRED            6 OUTER ITERATIONS 
       AND A TOTAL OF          9 INNER ITERATIONS.
    ------------------------------------------------

 NO OUTPUT CONTROL FOR STRESS PERIOD   41   TIME STEP   22
 
 WELLS WITH REDUCED PUMPING FOR STRESS PERIOD    41 TIME STEP    22
   LAY   ROW   COL         APPL.Q          ACT.Q        GW-HEAD       CELL-BOT
     1     3    50  -0.919994E+00  -0.309209E+00   0.435573E+01   0.000000E+00
     1     5    55  -0.919994E+00  -0.236383E+00   0.368066E+01   0.000000E+00
 
 
 SOLVING FOR HEAD 
                                                   Max.-Head-Change                         Max.-Flux-Residual
  Residual-Control   Outer-Iter.   Inner-Iter.     Column Row Layer    Maximum-Head-Change  Column Row Layer    Maximum-Flux-Residual          L2-NORM 
          0                 1           2             1    1     1      -0.3975348046E-01      85    4    1         0.1871375866E-02      0.1649364645E-01
          0                 2           2             1    1     1       0.3639352321E-02      85    4    1        -0.1708829317E-03      0.1619189915E-02
          0                 3           2             1    1     1      -0.3001745512E-03      85    4    1         0.1403028677E-04      0.1508769112E-03
          0                 4           1             1    1     1       0.2205508801E-04       7    4    1        -0.1174784934E-05      0.1291270128E-04
          0                 5           1            19    7     1      -0.1411659392E-05       6    4    1         0.1061635047E-06      0.9703684077E-06
          0                 6           1            19    7     1       0.7817232692E-07       6    4    1        -0.7649095579E-08      0.6276431592E-07

    ------------------------------------------------
       NWT REQUIRED            6 OUTER ITERATIONS 
       AND A TOTAL OF          9 INNER ITERATIONS.
    ------------------------------------------------

 NO OUTPUT CONTROL FOR STRESS PERIOD   41   TIME STEP   23
 
 WELLS WITH REDUCED PUMPING FOR STRESS PERIOD    41 TIME STEP    23
   LAY   ROW   COL         APPL.Q          ACT.Q        GW-HEAD       CELL-BOT
     1     3    50  -0.920017E+00  -0.309365E+00   0.435700E+01   0.000000E+00
     1     5    55  -0.920017E+00  -0.236505E+00   0.368172E+01   0.000000E+00
 
 
 SOLVING FOR HEAD 
                                                   Max.-Head-Change                         Max.-Flux-Residual
  Residual-Control   Outer-Iter.   Inner-Iter.     Column Row Layer    Maximum-Head-Change  Column Row Layer    Maximum-Flux-Residual          L2-NORM 
          0                 1           2            27    7     1      -0.3732997569E-01      80    4    1         0.1768521793E-02      0.1680274006E-01
          0                 2           2            27    7     1       0.3435515610E-02      16    4    1        -0.1851207150E-03      0.1732159365E-02
          0                 3           2            27    7     1      -0.2850920354E-03      16    4    1         0.1947538269E-04      0.1646683860E-03
          0                 4           1            27    7     1       0.2107604999E-04      16    4    1        -0.1762795074E-05      0.1406600922E-04
          0                 5           1            27    7     1      -0.1354271395E-05      16    4    1         0.1365567783E-06      0.1042955762E-05
          0                 6           1            27    7     1       0.7544830673E-07       2    4    1        -0.8905740145E-08      0.6634571599E-07

    ------------------------------------------------
       NWT REQUIRED            6 OUTER ITERATIONS 
       AND A TOTAL OF          9 INNER ITERATIONS.
    ------------------------------------------------

 NO OUTPUT CONTROL FOR STRESS PERIOD   41   TIME STEP   24
 
 WELLS WITH REDUCED PUMPING FOR STRESS PERIOD    41 TIME STEP    24
   LAY   ROW   COL         APPL.Q          ACT.Q        GW-HEAD       CELL-BOT
     1     3    50  -0.919996E+00  -0.309460E+00   0.435787E+01   0.000000E+00
     1     5    55  -0.919996E+00  -0.236580E+00   0.368245E+01   0.000000E+00
 
 
 SOLVING FOR HEAD 
                                                   Max.-Head-Change                         Max.-Flux-Residual
  Residual-Control   Outer-Iter.   Inner-Iter.     Column Row Layer    Maximum-Head-Change  Column Row Layer    Maximum-Flux-Residual          L2-NORM 
          0                 1           2            33    7     1      -0.3616511323E-01      76    4    1         0.1737155436E-02      0.1402057872E-01
          0                 2           2            33    7     1       0.3331642034E-02      26    4    1        -0.1780519403E-03      0.1418462602E-02
          0                 3           2            33    7     1      -0.2767360430E-03      26    4    1         0.1849424158E-04      0.1342975909E-03
          0                 4           1            33    7     1       0.2049651331E-04      26    4    1        -0.1653870033E-05      0.1153123632E-04
          0                 5           1            33    7     1      -0.1325207877E-05      26    4    1         0.1266314751E-06      0.8586481635E-06
          0                 6           1            33    7     1       0.7437702298E-07      26    4    1        -0.8165477183E-08      0.5493813619E-07

    ------------------------------------------------
       NWT REQUIRED            6 OUTER ITERATIONS 
       AND A TOTAL OF          9 INNER ITERATIONS.
    ------------------------------------------------

 NO OUTPUT CONTROL FOR STRESS PERIOD   41   TIME STEP   25
 
 WELLS WITH REDUCED PUMPING FOR STRESS PERIOD    41 TIME STEP    25
   LAY   ROW   COL         APPL.Q          ACT.Q        GW-HEAD       CELL-BOT
     1     3    50  -0.920010E+00  -0.309504E+00   0.435820E+01   0.000000E+00
     1     5    55  -0.920010E+00  -0.236615E+00   0.368274E+01   0.000000E+00
 
 
 SOLVING FOR HEAD 
                                                   Max.-Head-Change                         Max.-Flux-Residual
  Residual-Control   Outer-Iter.   Inner-Iter.     Column Row Layer    Maximum-Head-Change  Column Row Layer    Maximum-Flux-Residual          L2-NORM 
          0                 1           3             3    1     1      -0.3730490813E-01      71    4    1         0.1707676988E-02      0.1284611022E-01
          0                 2           2             3    1     1       0.3386268627E-02      33    4    1        -0.1825608936E-03      0.1287126953E-02
          0                 3           2             3    1     1      -0.2763160993E-03      33    4    1         0.1826083220E-04      0.1214524480E-03
          0                 4           1             3    1     1       0.2000921758E-04      33    4    1        -0.1586765531E-05      0.1044402655E-04
          0                 5           1            38    7     1      -0.1276167253E-05      33    4    1         0.1139138579E-06      0.7763602709E-06
          0                 6           1            38    7     1       0.7217335448E-07      32    4    1        -0.7126898183E-08      0.4969734533E-07

    ------------------------------------------------
       NWT REQUIRED            6 OUTER ITERATIONS 
       AND A TOTAL OF         10 INNER ITERATIONS.
    ------------------------------------------------

 NO OUTPUT CONTROL FOR STRESS PERIOD   41   TIME STEP   26
 
 WELLS WITH REDUCED PUMPING FOR STRESS PERIOD    41 TIME STEP    26
   LAY   ROW   COL         APPL.Q          ACT.Q        GW-HEAD       CELL-BOT
     1     3    50  -0.920006E+00  -0.309496E+00   0.435815E+01   0.000000E+00
     1     5    55  -0.920006E+00  -0.236615E+00   0.368274E+01   0.000000E+00
 
 
 SOLVING FOR HEAD 
                                                   Max.-Head-Change                         Max.-Flux-Residual
  Residual-Control   Outer-Iter.   Inner-Iter.     Column Row Layer    Maximum-Head-Change  Column Row Layer    Maximum-Flux-Residual          L2-NORM 
          0                 1           3             2    1     1      -0.4089070042E-01      67    4    1         0.1725535673E-02      0.1216166683E-01
          0                 2           2             2    1     1       0.3703138693E-02      38    4    1        -0.1756401424E-03      0.1202690623E-02
          0                 3           2             3    1     1      -0.3012517131E-03      38    4    1         0.1698983640E-04      0.1127249900E-03
          0                 4           1             3    1     1       0.2171513144E-04      38    4    1        -0.1438665714E-05      0.9687124761E-05
          0                 5           1             1    1     1      -0.1310593305E-05      38    4    1         0.1054977838E-06      0.7166164121E-06
          0                 6           1             1    1     1       0.6888924679E-07      38    4    1        -0.6605272773E-08      0.4578432599E-07

    ------------------------------------------------
       NWT REQUIRED            6 OUTER ITERATIONS 
       AND A TOTAL OF         10 INNER ITERATIONS.
    ------------------------------------------------

 NO OUTPUT CONTROL FOR STRESS PERIOD   41   TIME STEP   27
 
 WELLS WITH REDUCED PUMPING FOR STRESS PERIOD    41 TIME STEP    27
   LAY   ROW   COL         APPL.Q          ACT.Q        GW-HEAD       CELL-BOT
     1     3    50  -0.920002E+00  -0.309459E+00   0.435784E+01   0.000000E+00
     1     5    55  -0.920002E+00  -0.236601E+00   0.368262E+01   0.000000E+00
 
 
 SOLVING FOR HEAD 
                                                   Max.-Head-Change                         Max.-Flux-Residual
  Residual-Control   Outer-Iter.   Inner-Iter.     Column Row Layer    Maximum-Head-Change  Column Row Layer    Maximum-Flux-Residual          L2-NORM 
          0                 1           3             1    1     1      -0.4490984316E-01      42    4    1         0.1675274458E-02      0.1159572642E-01
          0                 2           2             1    1     1       0.4059704895E-02      42    4    1        -0.1719728383E-03      0.1127963591E-02
          0                 3           2             1    1     1      -0.3294076389E-03      42    4    1         0.1578067535E-04      0.1049280317E-03
          0                 4           1             1    1     1       0.2364120493E-04      42    4    1        -0.1279623111E-05      0.9025580302E-05
          0                 5           1             1    1     1      -0.1396016489E-05      42    4    1         0.9051323158E-07      0.6646443538E-06
          0                 6           1             1    1     1       0.7194012968E-07      42    4    1        -0.5507740930E-08      0.4240519579E-07

    ------------------------------------------------
       NWT REQUIRED            6 OUTER ITERATIONS 
       AND A TOTAL OF         10 INNER ITERATIONS.
    ------------------------------------------------

 NO OUTPUT CONTROL FOR STRESS PERIOD   41   TIME STEP   28
 
 WELLS WITH REDUCED PUMPING FOR STRESS PERIOD    41 TIME STEP    28
   LAY   ROW   COL         APPL.Q          ACT.Q        GW-HEAD       CELL-BOT
     1     3    50  -0.919984E+00  -0.309383E+00   0.435725E+01   0.000000E+00
     1     5    55  -0.919984E+00  -0.236565E+00   0.368234E+01   0.000000E+00
 
 
 SOLVING FOR HEAD 
                                                   Max.-Head-Change                         Max.-Flux-Residual
  Residual-Control   Outer-Iter.   Inner-Iter.     Column Row Layer    Maximum-Head-Change  Column Row Layer    Maximum-Flux-Residual          L2-NORM 
          0                 1           3             1    1     1      -0.4932182411E-01      45    4    1         0.1871571918E-02      0.1122060641E-01
          0                 2           2             1    1     1       0.4451289643E-02      45    4    1        -0.1764198049E-03      0.1078432246E-02
          0                 3           2             1    1     1      -0.3603493336E-03      45    4    1         0.1490612824E-04      0.9982906279E-04
          0                 4           1             1    1     1       0.2574964543E-04      45    4    1        -0.1120678227E-05      0.8608016857E-05
          0                 5           1             1    1     1      -0.1480241496E-05       2    4    1         0.7078893560E-07      0.6305992193E-06
          0                 6           1             1    1     1       0.7448510349E-07       2    4    1        -0.5284007898E-08      0.4017807117E-07

    ------------------------------------------------
       NWT REQUIRED            6 OUTER ITERATIONS 
       AND A TOTAL OF         10 INNER ITERATIONS.
    ------------------------------------------------

 NO OUTPUT CONTROL FOR STRESS PERIOD   41   TIME STEP   29
 
 WELLS WITH REDUCED PUMPING FOR STRESS PERIOD    41 TIME STEP    29
   LAY   ROW   COL         APPL.Q          ACT.Q        GW-HEAD       CELL-BOT
     1     3    50  -0.920010E+00  -0.309284E+00   0.435633E+01   0.000000E+00
     1     5    55  -0.920010E+00  -0.236516E+00   0.368183E+01   0.000000E+00
 
 
 SOLVING FOR HEAD 
                                                   Max.-Head-Change                         Max.-Flux-Residual
  Residual-Control   Outer-Iter.   Inner-Iter.     Column Row Layer    Maximum-Head-Change  Column Row Layer    Maximum-Flux-Residual          L2-NORM 
          0                 1           3             1    1     1      -0.4853646025E-01      48    4    1         0.1778379470E-02      0.1081952681E-01
          0                 2           2             1    1     1       0.4318798578E-02      48    4    1        -0.1516956631E-03      0.1081172991E-02
          0                 3           2             1    1     1      -0.3452141216E-03      48    4    1         0.1145079099E-04      0.1037682579E-03
          0                 4           1             1    1     1       0.2439293378E-04       7    4    1        -0.1153995015E-05      0.9137481787E-05
          0                 5           1             1    1     1      -0.1374769599E-05       6    4    1         0.9875561346E-07      0.6724174247E-06
          0                 6           1             1    1     1       0.6989916817E-07       4    4    1        -0.6737682412E-08      0.4274316918E-07

    ------------------------------------------------
       NWT REQUIRED            6 OUTER ITERATIONS 
       AND A TOTAL OF         10 INNER ITERATIONS.
    ------------------------------------------------

 NO OUTPUT CONTROL FOR STRESS PERIOD   41   TIME STEP   30
 
 WELLS WITH REDUCED PUMPING FOR STRESS PERIOD    41 TIME STEP    30
   LAY   ROW   COL         APPL.Q          ACT.Q        GW-HEAD       CELL-BOT
     1     3    50  -0.919898E+00  -0.309340E+00   0.435713E+01   0.000000E+00
     1     5    55  -0.919898E+00  -0.236590E+00   0.368276E+01   0.000000E+00
 



 STREAM LISTING     PERIOD     41   STEP       30

 LAYER ROW COL. STREAM  RCH.   FLOW INTO    STREAM     FLOW OUT OF   OVRLND.    DIRECT     STREAM      STREAM      STREAM     STREAM  STREAMBED   FLOW TO   CHNG. UNSAT. 
                SEG.NO.  NO.   STRM. RCH.    LOSS       STRM. RCH.   RUNOFF     PRECIP       ET         HEAD        DEPTH      WIDTH  CONDCTNC.   WAT. TAB.

   1    4    1     1     1    1.9700E+01  5.1636E-03   1.9695E+01  0.000E+00  0.000E+00  0.000E+00  1.43221E+02  3.371E+00  5.846E+00  1.334E-03  3.663E-03  1.501E-03
   1    4    2     1     2    1.9695E+01  5.1625E-03   1.9690E+01  0.000E+00  0.000E+00  0.000E+00  1.42921E+02  3.371E+00  5.846E+00  1.334E-03  3.714E-03  1.449E-03
   1    4    3     1     3    1.9690E+01  5.1614E-03   1.9685E+01  0.000E+00  0.000E+00  0.000E+00  1.42620E+02  3.370E+00  5.845E+00  1.334E-03  3.757E-03  1.405E-03
   1    4    4     1     4    1.9685E+01  5.1603E-03   1.9679E+01  0.000E+00  0.000E+00  0.000E+00  1.42320E+02  3.370E+00  5.845E+00  1.333E-03  3.792E-03  1.368E-03
   1    4    5     1     5    1.9679E+01  5.1591E-03   1.9674E+01  0.000E+00  0.000E+00  0.000E+00  1.42020E+02  3.370E+00  5.844E+00  1.333E-03  3.820E-03  1.339E-03
   1    4    6     1     6    1.9674E+01  5.1580E-03   1.9669E+01  0.000E+00  0.000E+00  0.000E+00  1.41719E+02  3.369E+00  5.843E+00  1.333E-03  3.840E-03  1.318E-03
   1    4    7     1     7    1.9669E+01  5.1569E-03   1.9664E+01  0.000E+00  0.000E+00  0.000E+00  1.41419E+02  3.369E+00  5.843E+00  1.333E-03  3.853E-03  1.304E-03
   1    4    8     1     8    1.9664E+01  5.1558E-03   1.9659E+01  0.000E+00  0.000E+00  0.000E+00  1.41118E+02  3.368E+00  5.842E+00  1.333E-03  3.857E-03  1.299E-03
   1    4    9     1     9    1.9659E+01  5.1547E-03   1.9654E+01  0.000E+00  0.000E+00  0.000E+00  1.40818E+02  3.368E+00  5.842E+00  1.333E-03  3.854E-03  1.301E-03
   1    4   10     1    10    1.9654E+01  5.1536E-03   1.9648E+01  0.000E+00  0.000E+00  0.000E+00  1.40517E+02  3.367E+00  5.841E+00  1.333E-03  3.842E-03  1.311E-03
   1    4   11     1    11    1.9648E+01  5.1524E-03   1.9643E+01  0.000E+00  0.000E+00  0.000E+00  1.40217E+02  3.367E+00  5.841E+00  1.332E-03  3.823E-03  1.330E-03
   1    4   12     1    12    1.9643E+01  5.1513E-03   1.9638E+01  0.000E+00  0.000E+00  0.000E+00  1.39917E+02  3.367E+00  5.840E+00  1.332E-03  3.795E-03  1.357E-03
   1    4   13     1    13    1.9638E+01  5.1502E-03   1.9633E+01  0.000E+00  0.000E+00  0.000E+00  1.39616E+02  3.366E+00  5.840E+00  1.332E-03  3.759E-03  1.392E-03
   1    4   14     1    14    1.9633E+01  5.1491E-03   1.9628E+01  0.000E+00  0.000E+00  0.000E+00  1.39316E+02  3.366E+00  5.839E+00  1.332E-03  3.714E-03  1.435E-03
   1    4   15     1    15    1.9628E+01  5.1480E-03   1.9623E+01  0.000E+00  0.000E+00  0.000E+00  1.39015E+02  3.365E+00  5.839E+00  1.332E-03  3.661E-03  1.487E-03
   1    4   16     1    16    1.9623E+01  5.1468E-03   1.9618E+01  0.000E+00  0.000E+00  0.000E+00  1.38715E+02  3.365E+00  5.838E+00  1.332E-03  3.599E-03  1.548E-03
   1    4   17     1    17    1.9618E+01  5.1457E-03   1.9612E+01  0.000E+00  0.000E+00  0.000E+00  1.38414E+02  3.364E+00  5.838E+00  1.332E-03  3.527E-03  1.618E-03
   1    4   18     1    18    1.9612E+01  5.1446E-03   1.9607E+01  0.000E+00  0.000E+00  0.000E+00  1.38114E+02  3.364E+00  5.837E+00  1.331E-03  3.447E-03  1.698E-03
   1    4   19     1    19    1.9607E+01  5.1435E-03   1.9602E+01  0.000E+00  0.000E+00  0.000E+00  1.37814E+02  3.364E+00  5.837E+00  1.331E-03  3.357E-03  1.786E-03
   1    4   20     1    20    1.9602E+01  5.1424E-03   1.9597E+01  0.000E+00  0.000E+00  0.000E+00  1.37513E+02  3.363E+00  5.836E+00  1.331E-03  3.263E-03  1.879E-03
   1    4   21     1    21    1.9597E+01  5.1413E-03   1.9592E+01  0.000E+00  0.000E+00  0.000E+00  1.37213E+02  3.363E+00  5.836E+00  1.331E-03  3.156E-03  1.986E-03
   1    4   22     1    22    1.9592E+01  5.1401E-03   1.9587E+01  0.000E+00  0.000E+00  0.000E+00  1.36912E+02  3.362E+00  5.835E+00  1.331E-03  3.133E-03  2.007E-03
   1    4   23     1    23    1.9587E+01  5.1390E-03   1.9582E+01  0.000E+00  0.000E+00  0.000E+00  1.36612E+02  3.362E+00  5.835E+00  1.331E-03  3.133E-03  2.006E-03
   1    4   24     1    24    1.9582E+01  5.1379E-03   1.9576E+01  0.000E+00  0.000E+00  0.000E+00  1.36311E+02  3.361E+00  5.834E+00  1.331E-03  3.136E-03  2.002E-03
   1    4   25     1    25    1.9576E+01  5.1368E-03   1.9571E+01  0.000E+00  0.000E+00  0.000E+00  1.36011E+02  3.361E+00  5.834E+00  1.330E-03  3.137E-03  2.000E-03
   1    4   26     1    26    1.9571E+01  5.1357E-03   1.9566E+01  0.000E+00  0.000E+00  0.000E+00  1.35711E+02  3.361E+00  5.833E+00  1.330E-03  3.138E-03  1.998E-03
   1    4   27     1    27    1.9566E+01  5.1346E-03   1.9561E+01  0.000E+00  0.000E+00  0.000E+00  1.35410E+02  3.360E+00  5.833E+00  1.330E-03  3.138E-03  1.996E-03
   1    4   28     1    28    1.9561E+01  5.1335E-03   1.9556E+01  0.000E+00  0.000E+00  0.000E+00  1.35110E+02  3.360E+00  5.832E+00  1.330E-03  3.139E-03  1.995E-03
   1    4   29     1    29    1.9556E+01  5.1323E-03   1.9551E+01  0.000E+00  0.000E+00  0.000E+00  1.34809E+02  3.359E+00  5.832E+00  1.330E-03  3.139E-03  1.993E-03
   1    4   30     1    30    1.9551E+01  5.1312E-03   1.9546E+01  0.000E+00  0.000E+00  0.000E+00  1.34509E+02  3.359E+00  5.831E+00  1.330E-03  3.148E-03  1.983E-03
   1    4   31     1    31    1.9546E+01  5.1301E-03   1.9540E+01  0.000E+00  0.000E+00  0.000E+00  1.34208E+02  3.358E+00  5.831E+00  1.330E-03  3.154E-03  1.976E-03
   1    4   32     1    32    1.9540E+01  5.1290E-03   1.9535E+01  0.000E+00  0.000E+00  0.000E+00  1.33908E+02  3.358E+00  5.830E+00  1.329E-03  3.155E-03  1.974E-03
   1    4   33     1    33    1.9535E+01  5.1279E-03   1.9530E+01  0.000E+00  0.000E+00  0.000E+00  1.33608E+02  3.358E+00  5.830E+00  1.329E-03  3.155E-03  1.972E-03
   1    4   34     1    34    1.9530E+01  5.1268E-03   1.9525E+01  0.000E+00  0.000E+00  0.000E+00  1.33307E+02  3.357E+00  5.829E+00  1.329E-03  3.156E-03  1.970E-03
   1    4   35     1    35    1.9525E+01  5.1257E-03   1.9520E+01  0.000E+00  0.000E+00  0.000E+00  1.33007E+02  3.357E+00  5.829E+00  1.329E-03  3.157E-03  1.968E-03
   1    4   36     1    36    1.9520E+01  5.1245E-03   1.9515E+01  0.000E+00  0.000E+00  0.000E+00  1.32706E+02  3.356E+00  5.828E+00  1.329E-03  3.159E-03  1.966E-03
   1    4   37     1    37    1.9515E+01  5.1234E-03   1.9510E+01  0.000E+00  0.000E+00  0.000E+00  1.32406E+02  3.356E+00  5.828E+00  1.329E-03  3.160E-03  1.964E-03
   1    4   38     1    38    1.9510E+01  5.1223E-03   1.9505E+01  0.000E+00  0.000E+00  0.000E+00  1.32105E+02  3.355E+00  5.827E+00  1.329E-03  3.161E-03  1.961E-03
   1    4   39     1    39    1.9505E+01  5.1212E-03   1.9499E+01  0.000E+00  0.000E+00  0.000E+00  1.31805E+02  3.355E+00  5.826E+00  1.328E-03  3.163E-03  1.958E-03
   1    4   40     1    40    1.9499E+01  5.1201E-03   1.9494E+01  0.000E+00  0.000E+00  0.000E+00  1.31505E+02  3.355E+00  5.826E+00  1.328E-03  3.165E-03  1.955E-03
   1    4   41     1    41    1.9494E+01  5.1190E-03   1.9489E+01  0.000E+00  0.000E+00  0.000E+00  1.31204E+02  3.354E+00  5.825E+00  1.328E-03  3.167E-03  1.952E-03
   1    4   42     1    42    1.9489E+01  5.1179E-03   1.9484E+01  0.000E+00  0.000E+00  0.000E+00  1.30904E+02  3.354E+00  5.825E+00  1.328E-03  3.169E-03  1.949E-03
   1    4   43     1    43    1.9484E+01  5.1168E-03   1.9479E+01  0.000E+00  0.000E+00  0.000E+00  1.30603E+02  3.353E+00  5.824E+00  1.328E-03  3.172E-03  1.944E-03
   1    4   44     1    44    1.9479E+01  5.1156E-03   1.9474E+01  0.000E+00  0.000E+00  0.000E+00  1.30303E+02  3.353E+00  5.824E+00  1.328E-03  3.176E-03  1.939E-03
   1    4   45     1    45    1.9474E+01  5.1145E-03   1.9469E+01  0.000E+00  0.000E+00  0.000E+00  1.30002E+02  3.352E+00  5.823E+00  1.328E-03  3.181E-03  1.934E-03
   1    4   46     1    46    1.9469E+01  5.1134E-03   1.9464E+01  0.000E+00  0.000E+00  0.000E+00  1.29702E+02  3.352E+00  5.823E+00  1.327E-03  3.190E-03  1.923E-03
   1    4   47     1    47    1.9464E+01  5.1123E-03   1.9459E+01  0.000E+00  0.000E+00  0.000E+00  1.29402E+02  3.352E+00  5.822E+00  1.327E-03  3.202E-03  1.910E-03
   1    4   48     1    48    1.9459E+01  5.1112E-03   1.9453E+01  0.000E+00  0.000E+00  0.000E+00  1.29101E+02  3.351E+00  5.822E+00  1.327E-03  2.939E-03  2.172E-03
   1    4   49     1    49    1.9453E+01  5.1101E-03   1.9448E+01  0.000E+00  0.000E+00  0.000E+00  1.28801E+02  3.351E+00  5.821E+00  1.327E-03  1.836E-03  3.274E-03
   1    4   50     1    50    1.9448E+01  5.1090E-03   1.9443E+01  0.000E+00  0.000E+00  0.000E+00  1.28500E+02  3.350E+00  5.821E+00  1.327E-03  1.052E-03  4.057E-03
   1    4   51     1    51    1.9443E+01  5.1079E-03   1.9438E+01  0.000E+00  0.000E+00  0.000E+00  1.28200E+02  3.350E+00  5.820E+00  1.327E-03  1.054E-03  4.054E-03
   1    4   52     1    52    1.9438E+01  5.1068E-03   1.9433E+01  0.000E+00  0.000E+00  0.000E+00  1.27899E+02  3.349E+00  5.820E+00  1.327E-03  1.055E-03  4.052E-03
   1    4   53     1    53    1.9433E+01  5.1056E-03   1.9428E+01  0.000E+00  0.000E+00  0.000E+00  1.27599E+02  3.349E+00  5.819E+00  1.327E-03  1.054E-03  4.051E-03
   1    4   54     1    54    1.9428E+01  5.1045E-03   1.9423E+01  0.000E+00  0.000E+00  0.000E+00  1.27299E+02  3.349E+00  5.819E+00  1.326E-03  1.053E-03  4.052E-03
   1    4   55     1    55    1.9423E+01  5.1034E-03   1.9418E+01  0.000E+00  0.000E+00  0.000E+00  1.26998E+02  3.348E+00  5.818E+00  1.326E-03  1.051E-03  4.052E-03
   1    4   56     1    56    1.9418E+01  5.1023E-03   1.9413E+01  0.000E+00  0.000E+00  0.000E+00  1.26698E+02  3.348E+00  5.818E+00  1.326E-03  1.713E-03  3.389E-03
   1    4   57     1    57    1.9413E+01  5.1012E-03   1.9407E+01  0.000E+00  0.000E+00  0.000E+00  1.26397E+02  3.347E+00  5.817E+00  1.326E-03  2.751E-03  2.350E-03
   1    4   58     1    58    1.9407E+01  5.1001E-03   1.9402E+01  0.000E+00  0.000E+00  0.000E+00  1.26097E+02  3.347E+00  5.817E+00  1.326E-03  3.207E-03  1.893E-03
   1    4   59     1    59    1.9402E+01  5.0990E-03   1.9397E+01  0.000E+00  0.000E+00  0.000E+00  1.25796E+02  3.346E+00  5.816E+00  1.326E-03  3.195E-03  1.904E-03
   1    4   60     1    60    1.9397E+01  5.0979E-03   1.9392E+01  0.000E+00  0.000E+00  0.000E+00  1.25496E+02  3.346E+00  5.816E+00  1.326E-03  3.185E-03  1.913E-03
   1    4   61     1    61    1.9392E+01  5.0968E-03   1.9387E+01  0.000E+00  0.000E+00  0.000E+00  1.25196E+02  3.346E+00  5.815E+00  1.325E-03  3.179E-03  1.918E-03
   1    4   62     1    62    1.9387E+01  5.0957E-03   1.9382E+01  0.000E+00  0.000E+00  0.000E+00  1.24895E+02  3.345E+00  5.815E+00  1.325E-03  3.175E-03  1.920E-03
   1    4   63     1    63    1.9382E+01  5.0946E-03   1.9377E+01  0.000E+00  0.000E+00  0.000E+00  1.24595E+02  3.345E+00  5.814E+00  1.325E-03  3.173E-03  1.922E-03
   1    4   64     1    64    1.9377E+01  5.0935E-03   1.9372E+01  0.000E+00  0.000E+00  0.000E+00  1.24294E+02  3.344E+00  5.814E+00  1.325E-03  3.170E-03  1.923E-03
   1    4   65     1    65    1.9372E+01  5.0923E-03   1.9367E+01  0.000E+00  0.000E+00  0.000E+00  1.23994E+02  3.344E+00  5.813E+00  1.325E-03  3.169E-03  1.924E-03
   1    4   66     1    66    1.9367E+01  5.0912E-03   1.9362E+01  0.000E+00  0.000E+00  0.000E+00  1.23693E+02  3.343E+00  5.813E+00  1.325E-03  3.167E-03  1.924E-03
   1    4   67     1    67    1.9362E+01  5.0901E-03   1.9357E+01  0.000E+00  0.000E+00  0.000E+00  1.23393E+02  3.343E+00  5.812E+00  1.325E-03  3.166E-03  1.924E-03
   1    4   68     1    68    1.9357E+01  5.0890E-03   1.9351E+01  0.000E+00  0.000E+00  0.000E+00  1.23093E+02  3.343E+00  5.812E+00  1.324E-03  3.166E-03  1.923E-03
   1    4   69     1    69    1.9351E+01  5.0879E-03   1.9346E+01  0.000E+00  0.000E+00  0.000E+00  1.22792E+02  3.342E+00  5.811E+00  1.324E-03  3.165E-03  1.923E-03
   1    4   70     1    70    1.9346E+01  5.0868E-03   1.9341E+01  0.000E+00  0.000E+00  0.000E+00  1.22492E+02  3.342E+00  5.811E+00  1.324E-03  3.164E-03  1.922E-03
   1    4   71     1    71    1.9341E+01  5.0857E-03   1.9336E+01  0.000E+00  0.000E+00  0.000E+00  1.22191E+02  3.341E+00  5.810E+00  1.324E-03  3.164E-03  1.922E-03
   1    4   72     1    72    1.9336E+01  5.0846E-03   1.9331E+01  0.000E+00  0.000E+00  0.000E+00  1.21891E+02  3.341E+00  5.810E+00  1.324E-03  3.164E-03  1.921E-03
   1    4   73     1    73    1.9331E+01  5.0835E-03   1.9326E+01  0.000E+00  0.000E+00  0.000E+00  1.21590E+02  3.340E+00  5.809E+00  1.324E-03  3.164E-03  1.920E-03
   1    4   74     1    74    1.9326E+01  5.0824E-03   1.9321E+01  0.000E+00  0.000E+00  0.000E+00  1.21290E+02  3.340E+00  5.808E+00  1.324E-03  3.164E-03  1.919E-03
   1    4   75     1    75    1.9321E+01  5.0813E-03   1.9316E+01  0.000E+00  0.000E+00  0.000E+00  1.20990E+02  3.340E+00  5.808E+00  1.323E-03  3.164E-03  1.918E-03
   1    4   76     1    76    1.9316E+01  5.0802E-03   1.9311E+01  0.000E+00  0.000E+00  0.000E+00  1.20689E+02  3.339E+00  5.807E+00  1.323E-03  3.151E-03  1.929E-03
   1    4   77     1    77    1.9311E+01  5.0791E-03   1.9306E+01  0.000E+00  0.000E+00  0.000E+00  1.20389E+02  3.339E+00  5.807E+00  1.323E-03  3.152E-03  1.927E-03
   1    4   78     1    78    1.9306E+01  5.0780E-03   1.9301E+01  0.000E+00  0.000E+00  0.000E+00  1.20088E+02  3.338E+00  5.806E+00  1.323E-03  3.153E-03  1.925E-03
   1    4   79     1    79    1.9301E+01  5.0769E-03   1.9296E+01  0.000E+00  0.000E+00  0.000E+00  1.19788E+02  3.338E+00  5.806E+00  1.323E-03  3.189E-03  1.888E-03
   1    4   80     1    80    1.9296E+01  5.0758E-03   1.9290E+01  0.000E+00  0.000E+00  0.000E+00  1.19487E+02  3.337E+00  5.805E+00  1.323E-03  3.452E-03  1.624E-03
   1    4   81     1    81    1.9290E+01  5.0746E-03   1.9285E+01  0.000E+00  0.000E+00  0.000E+00  1.19187E+02  3.337E+00  5.805E+00  1.323E-03  3.707E-03  1.367E-03
   1    4   82     1    82    1.9285E+01  5.0735E-03   1.9280E+01  0.000E+00  0.000E+00  0.000E+00  1.18887E+02  3.337E+00  5.804E+00  1.322E-03  3.955E-03  1.118E-03
   1    4   83     1    83    1.9280E+01  5.0724E-03   1.9275E+01  0.000E+00  0.000E+00  0.000E+00  1.18586E+02  3.336E+00  5.804E+00  1.322E-03  4.196E-03  8.763E-04
   1    4   84     1    84    1.9275E+01  5.0713E-03   1.9270E+01  0.000E+00  0.000E+00  0.000E+00  1.18286E+02  3.336E+00  5.803E+00  1.322E-03  4.339E-03  7.320E-04
   1    4   85     1    85    1.9270E+01  5.0702E-03   1.9265E+01  0.000E+00  0.000E+00  0.000E+00  1.17985E+02  3.335E+00  5.803E+00  1.322E-03  4.340E-03  7.306E-04
   1    4   86     1    86    1.9265E+01  5.0691E-03   1.9260E+01  0.000E+00  0.000E+00  0.000E+00  1.17685E+02  3.335E+00  5.802E+00  1.322E-03  4.339E-03  7.297E-04
   1    4   87     1    87    1.9260E+01  5.0680E-03   1.9255E+01  0.000E+00  0.000E+00  0.000E+00  1.17384E+02  3.334E+00  5.802E+00  1.322E-03  4.339E-03  7.289E-04
   1    4   88     1    88    1.9255E+01  5.0669E-03   1.9250E+01  0.000E+00  0.000E+00  0.000E+00  1.17084E+02  3.334E+00  5.801E+00  1.322E-03  4.339E-03  7.282E-04
   1    4   89     1    89    1.9250E+01  5.0658E-03   1.9245E+01  0.000E+00  0.000E+00  0.000E+00  1.16784E+02  3.334E+00  5.801E+00  1.321E-03  4.339E-03  7.269E-04
   1    4   90     1    90    1.9245E+01  5.0647E-03   1.9240E+01  0.000E+00  0.000E+00  0.000E+00  1.16483E+02  3.333E+00  5.800E+00  1.321E-03  4.339E-03  7.253E-04
   1    4   91     1    91    1.9240E+01  5.0636E-03   1.9235E+01  0.000E+00  0.000E+00  0.000E+00  1.16183E+02  3.333E+00  5.800E+00  1.321E-03  4.340E-03  7.239E-04
   1    4   92     1    92    1.9235E+01  5.0625E-03   1.9230E+01  0.000E+00  0.000E+00  0.000E+00  1.15882E+02  3.332E+00  5.799E+00  1.321E-03  4.340E-03  7.229E-04
   1    4   93     1    93    1.9230E+01  5.0614E-03   1.9225E+01  0.000E+00  0.000E+00  0.000E+00  1.15582E+02  3.332E+00  5.799E+00  1.321E-03  4.339E-03  7.224E-04
   1    4   94     1    94    1.9225E+01  5.0603E-03   1.9219E+01  0.000E+00  0.000E+00  0.000E+00  1.15281E+02  3.331E+00  5.798E+00  1.321E-03  4.338E-03  7.225E-04
   1    4   95     1    95    1.9219E+01  5.0592E-03   1.9214E+01  0.000E+00  0.000E+00  0.000E+00  1.14981E+02  3.331E+00  5.798E+00  1.321E-03  4.336E-03  7.234E-04
   1    4   96     1    96    1.9214E+01  5.0581E-03   1.9209E+01  0.000E+00  0.000E+00  0.000E+00  1.14681E+02  3.331E+00  5.797E+00  1.320E-03  4.333E-03  7.253E-04
   1    4   97     1    97    1.9209E+01  5.0570E-03   1.9204E+01  0.000E+00  0.000E+00  0.000E+00  1.14380E+02  3.330E+00  5.797E+00  1.320E-03  4.329E-03  7.281E-04
   1    4   98     1    98    1.9204E+01  5.0559E-03   1.9199E+01  0.000E+00  0.000E+00  0.000E+00  1.14080E+02  3.330E+00  5.796E+00  1.320E-03  4.313E-03  7.429E-04
   1    4   99     1    99    1.9199E+01  5.0548E-03   1.9194E+01  0.000E+00  0.000E+00  0.000E+00  1.13779E+02  3.329E+00  5.796E+00  1.320E-03  4.307E-03  7.474E-04
   1    4  100     1   100    1.9194E+01  5.0537E-03   1.9189E+01  0.000E+00  0.000E+00  0.000E+00  1.13479E+02  3.329E+00  5.795E+00  1.320E-03  4.301E-03  7.523E-04



1
  VOLUMETRIC BUDGET FOR UNSATURATED ZONE BENEATH STREAMS AT END OF TIME STEP    30 STRESS PERIOD  41
  ------------------------------------------------------------------------------------------------

    CUMULATIVE VOLUMES             L**3    RATES FOR THIS TIME STEP         L**3/T
    ------------------                     ------------------------


          STREAM LOSS =     32525420.0000            STREAM LOSS =            0.5109
    CHANGE IN STORAGE =      2065040.6250      CHANGE IN STORAGE =            0.1774
       RECHARGE TO GW =     30467332.0000         RECHARGE TO GW =            0.3334

             TOTAL IN =     32525420.0000               TOTAL IN =            0.5109

            TOTAL OUT =     32532372.0000              TOTAL OUT =            0.5109

             IN - OUT =        -6952.0000               IN - OUT =        1.7881E-07

  PERCENT DISCREPANCY =           -0.01      PERCENT DISCREPANCY =             0.00



1
  VOLUMETRIC BUDGET FOR ENTIRE MODEL AT END OF TIME STEP   30, STRESS PERIOD  41
  ------------------------------------------------------------------------------

     CUMULATIVE VOLUMES      L**3       RATES FOR THIS TIME STEP      L**3/T
     ------------------                 ------------------------

           IN:                                      IN:
           ---                                      ---
             STORAGE     =   111797096.0000               STORAGE     =           0.1667
       CONSTANT HEAD     =           0.0000         CONSTANT HEAD     =           0.0000
               WELLS     =           0.0000                 WELLS     =           0.0000
     HEAD DEP BOUNDS     =     2090113.0000       HEAD DEP BOUNDS     =       7.6090E-02
      STREAM LEAKAGE     =    30467022.0000        STREAM LEAKAGE     =           0.3334

                TOTAL IN =   144354224.0000                  TOTAL IN =           0.5762

          OUT:                                     OUT:
          ----                                     ----
             STORAGE     =     3435248.5000               STORAGE     =       3.0278E-02
       CONSTANT HEAD     =           0.0000         CONSTANT HEAD     =           0.0000
               WELLS     =   124533104.0000                 WELLS     =           0.5459
     HEAD DEP BOUNDS     =    16385952.0000       HEAD DEP BOUNDS     =           0.0000
      STREAM LEAKAGE     =           0.0000        STREAM LEAKAGE     =           0.0000

               TOTAL OUT =   144354304.0000                 TOTAL OUT =           0.5762

                IN - OUT =         -80.0000                  IN - OUT =           0.0000

     PERCENT DISCREPANCY =          -0.00         PERCENT DISCREPANCY =           0.00






         TIME SUMMARY AT END OF TIME STEP   30 IN STRESS PERIOD   41
                    SECONDS     MINUTES      HOURS       DAYS        YEARS
                    -----------------------------------------------------------
   TIME STEP LENGTH 2.49961E+05  4166.0      69.434      2.8931     7.92080E-03
 STRESS PERIOD TIME 2.59200E+06  43200.      720.00      30.000     8.21355E-02
         TOTAL TIME 1.06272E+08 1.77120E+06  29520.      1230.0      3.3676    
1
1
                            STRESS PERIOD NO.   42, LENGTH =   2592000.    
                            -----------------------------------------------

                              NUMBER OF TIME STEPS =    30

                               MULTIPLIER FOR DELT =     1.100

                            INITIAL TIME STEP SIZE =   15757.40    

 REUSING NON-PARAMETER WELLS FROM LAST STRESS PERIOD

      1 WELL 

 REUSING NON-PARAMETER GHB CELLS FROM LAST STRESS PERIOD

      7 GHB CELLS



 CLASSIFICATION & COUNT OF STREAM SEGMENTS BASED ON SOURCE OF INFLOW:

                HEADWATER     DIVERSION     RECEIVES TRIBUTARY FLOW
                ---------     ---------     -----------------------
                     1              0               0



                    INPUT DATA FOR EACH STREAM SEGMENT
 ---------------------------------------------------------------------------------------------

 SEGMENT    SEG.     INFLOW   OVERLAND   STREAM    STREAM   ICALC  OUTFLOW  DIVERSION PRIORITY
    NO.    LENGTH     RATE     RUNOFF      ET       PPT.    METH.  TO SEG.  FROM SEG.    NO.

      1  2.000E+04 9.110E+00 0.000E+00 0.000E+00 0.000E+00    2        0        0        0


         STREAMBED PROPERTIES AND STREAM DIMENSIONS

 SEGMENT     BED HYD. COND.      BED THICKNESS     ELEV.-TOP OF BED     WIDTH OF STREAM     DEPTH OF STREAM    STREAM ROUGHNESS
    No.     UPPER     LOWER     UPPER     LOWER     UPPER     LOWER     UPPER     LOWER     UPPER     LOWER   CHANNEL      BANK

     1  3.500E-07 3.500E-07                                                                                 3.000E-02 4.000E-02

  EIGHT POINT CROSS-SECTION DATA FOR SEGMENTS WITH ICALC = 2
    X VALUES X VALUES START FROM LEFT SIDE LOOKING DOWNSTREAM

     SEGMENT NO.        X1        X2        X3        X4        X5        X6        X7        X8
            1      0.000E+00 2.000E+00 4.000E+00 6.000E+00 8.000E+00 1.000E+01 1.200E+01 1.400E+01

    Z VALUES ARE RELATIVE TO STREAMBED ELEVATION

     SEGMENT NO.          Z1        Z2        Z3        Z4        Z5        Z6        Z7        Z8
            1      6.000E+00 4.500E+00 3.500E+00 0.000E+00 3.000E-01 3.500E+00 4.500E+00 6.000E+00



 
 SOLVING FOR HEAD 
                                                   Max.-Head-Change                         Max.-Flux-Residual
  Residual-Control   Outer-Iter.   Inner-Iter.     Column Row Layer    Maximum-Head-Change  Column Row Layer    Maximum-Flux-Residual          L2-NORM 
          0                 1           2            50    3     1       0.4130557799E+00      50    3    1         0.1277324254E+00      0.1611074261E+00
          0                 2           2            50    3     1      -0.4193267634E-01      50    3    1        -0.1325991221E-01      0.1679344317E-01
          0                 3           2            50    3     1       0.3722309978E-02      50    3    1         0.1189670360E-02      0.1506906940E-02
          0                 4           2            50    3     1      -0.2953782494E-03      50    3    1        -0.9532217606E-04      0.1207731330E-03
          0                 5           1            50    3     1       0.2057426793E-04      50    3    1         0.6700871854E-05      0.8490381886E-05
          0                 6           1            50    3     1      -0.1235425159E-05      50    3    1        -0.4060472331E-06      0.5144892473E-06
          0                 7           1            50    3     1       0.6242445366E-07      50    3    1         0.2070438487E-07      0.2623390141E-07

    ------------------------------------------------
       NWT REQUIRED            7 OUTER ITERATIONS 
       AND A TOTAL OF         11 INNER ITERATIONS.
    ------------------------------------------------

 NO OUTPUT CONTROL FOR STRESS PERIOD   42   TIME STEP    1
 
 WELLS WITH REDUCED PUMPING FOR STRESS PERIOD    42 TIME STEP     1
   LAY   ROW   COL         APPL.Q          ACT.Q        GW-HEAD       CELL-BOT
     1     3    50  -0.540089E+00  -0.207741E+00   0.473170E+01   0.000000E+00
     1     5    55  -0.540089E+00  -0.158314E+00   0.397701E+01   0.000000E+00
 
 
 SOLVING FOR HEAD 
                                                   Max.-Head-Change                         Max.-Flux-Residual
  Residual-Control   Outer-Iter.   Inner-Iter.     Column Row Layer    Maximum-Head-Change  Column Row Layer    Maximum-Flux-Residual          L2-NORM 
          0                 1           2            50    3     1       0.2984178153E+00      50    3    1         0.8557647289E-01      0.1096264400E+00
          0                 2           2            50    3     1      -0.2972867891E-01      50    3    1        -0.8768525607E-02      0.1125264974E-01
          0                 3           2            50    3     1       0.2634875287E-02      50    3    1         0.7876633837E-03      0.1011626428E-02
          0                 4           2            50    3     1      -0.2088993568E-03      50    3    1        -0.6310333234E-04      0.8109530103E-04
          0                 5           1            50    3     1       0.1454849602E-04      50    3    1         0.4436032246E-05      0.5701659101E-05
          0                 6           1            50    3     1      -0.8735816661E-06      50    3    1        -0.2688063340E-06      0.3455092003E-06

    ------------------------------------------------
       NWT REQUIRED            6 OUTER ITERATIONS 
       AND A TOTAL OF         10 INNER ITERATIONS.
    ------------------------------------------------

 NO OUTPUT CONTROL FOR STRESS PERIOD   42   TIME STEP    2
 
 WELLS WITH REDUCED PUMPING FOR STRESS PERIOD    42 TIME STEP     2
   LAY   ROW   COL         APPL.Q          ACT.Q        GW-HEAD       CELL-BOT
     1     3    50  -0.540089E+00  -0.227013E+00   0.500283E+01   0.000000E+00
     1     5    55  -0.540089E+00  -0.173111E+00   0.419494E+01   0.000000E+00
 
 
 SOLVING FOR HEAD 
                                                   Max.-Head-Change                         Max.-Flux-Residual
  Residual-Control   Outer-Iter.   Inner-Iter.     Column Row Layer    Maximum-Head-Change  Column Row Layer    Maximum-Flux-Residual          L2-NORM 
          0                 1           2            50    3     1       0.2133214800E+00      50    3    1         0.5637922052E-01      0.7429505621E-01
          0                 2           2            50    3     1      -0.2091866119E-01      50    3    1        -0.5731714150E-02      0.7508464648E-02
          0                 3           2            50    3     1       0.1848392855E-02      50    3    1         0.5152062128E-03      0.6759226237E-03
          0                 4           2            50    3     1      -0.1463611729E-03      50    3    1        -0.4127270253E-04      0.5421163401E-04
          0                 5           1            50    3     1       0.1019024336E-04      50    3    1         0.2901402739E-05      0.3812400077E-05
          0                 6           1            50    3     1      -0.6118625875E-06      50    3    1        -0.1758136072E-06      0.2310386725E-06

    ------------------------------------------------
       NWT REQUIRED            6 OUTER ITERATIONS 
       AND A TOTAL OF         10 INNER ITERATIONS.
    ------------------------------------------------

 NO OUTPUT CONTROL FOR STRESS PERIOD   42   TIME STEP    3
 
 WELLS WITH REDUCED PUMPING FOR STRESS PERIOD    42 TIME STEP     3
   LAY   ROW   COL         APPL.Q          ACT.Q        GW-HEAD       CELL-BOT
     1     3    50  -0.539930E+00  -0.240869E+00   0.519694E+01   0.000000E+00
     1     5    55  -0.539930E+00  -0.184041E+00   0.435385E+01   0.000000E+00
 
 
 SOLVING FOR HEAD 
                                                   Max.-Head-Change                         Max.-Flux-Residual
  Residual-Control   Outer-Iter.   Inner-Iter.     Column Row Layer    Maximum-Head-Change  Column Row Layer    Maximum-Flux-Residual          L2-NORM 
          0                 1           2            50    3     1       0.1513015035E+00      50    3    1         0.3658745533E-01      0.5083930343E-01
          0                 2           2            50    3     1      -0.1461480354E-01      50    3    1        -0.3700773676E-02      0.5037459508E-02
          0                 3           2            50    3     1       0.1285705197E-02      50    3    1         0.3327757177E-03      0.4539112192E-03
          0                 4           1            50    3     1      -0.1016283127E-03      50    3    1        -0.2665733188E-04      0.3643996008E-04
          0                 5           1            50    3     1       0.7072414005E-05      50    3    1         0.1873970618E-05      0.2563874752E-05
          0                 6           1            50    3     1      -0.4246215349E-06      50    3    1        -0.1135551242E-06      0.1554033846E-06

    ------------------------------------------------
       NWT REQUIRED            6 OUTER ITERATIONS 
       AND A TOTAL OF          9 INNER ITERATIONS.
    ------------------------------------------------

 NO OUTPUT CONTROL FOR STRESS PERIOD   42   TIME STEP    4
 
 WELLS WITH REDUCED PUMPING FOR STRESS PERIOD    42 TIME STEP     4
   LAY   ROW   COL         APPL.Q          ACT.Q        GW-HEAD       CELL-BOT
     1     3    50  -0.540075E+00  -0.250871E+00   0.533482E+01   0.000000E+00
     1     5    55  -0.540075E+00  -0.192083E+00   0.446819E+01   0.000000E+00
 
 
 SOLVING FOR HEAD 
                                                   Max.-Head-Change                         Max.-Flux-Residual
  Residual-Control   Outer-Iter.   Inner-Iter.     Column Row Layer    Maximum-Head-Change  Column Row Layer    Maximum-Flux-Residual          L2-NORM 
          0                 1           2            50    3     1       0.1084930660E+00      50    3    1         0.2368406927E-01      0.3636207417E-01
          0                 2           2            50    3     1      -0.1017342937E-01      50    3    1        -0.2386855159E-02      0.3488426591E-02
          0                 3           2            50    3     1       0.8931792616E-03      50    3    1         0.2146943706E-03      0.3154436231E-03
          0                 4           1            50    3     1      -0.7071931659E-04      50    3    1        -0.1719779782E-04      0.2534219234E-04
          0                 5           1            50    3     1       0.4925664242E-05      50    3    1         0.1208979281E-05      0.1783877500E-05
          0                 6           1            50    3     1      -0.2957746097E-06      50    3    1        -0.7325921081E-07      0.1081631304E-06

    ------------------------------------------------
       NWT REQUIRED            6 OUTER ITERATIONS 
       AND A TOTAL OF          9 INNER ITERATIONS.
    ------------------------------------------------

 NO OUTPUT CONTROL FOR STRESS PERIOD   42   TIME STEP    5
 
 WELLS WITH REDUCED PUMPING FOR STRESS PERIOD    42 TIME STEP     5
   LAY   ROW   COL         APPL.Q          ACT.Q        GW-HEAD       CELL-BOT
     1     3    50  -0.540037E+00  -0.258013E+00   0.543396E+01   0.000000E+00
     1     5    55  -0.540037E+00  -0.197906E+00   0.455107E+01   0.000000E+00
 
 
 SOLVING FOR HEAD 
                                                   Max.-Head-Change                         Max.-Flux-Residual
  Residual-Control   Outer-Iter.   Inner-Iter.     Column Row Layer    Maximum-Head-Change  Column Row Layer    Maximum-Flux-Residual          L2-NORM 
          0                 1           2            50    3     1       0.8019690252E-01      50    3    1         0.1550395979E-01      0.2794359016E-01
          0                 2           2            50    3     1      -0.7302632999E-02      50    3    1        -0.1557028547E-02      0.2576345393E-02
          0                 3           2            50    3     1       0.6347853403E-03      50    3    1         0.1400759963E-03      0.2335791451E-03
          0                 4           1            50    3     1      -0.5013565168E-04      50    3    1        -0.1122039291E-04      0.1881907827E-04
          0                 5           1            50    3     1       0.3490874774E-05      50    3    1         0.7887732555E-06      0.1326767717E-05
          0                 6           1            50    3     1      -0.2096188898E-06      50    3    1        -0.4779618568E-07      0.8051098730E-07

    ------------------------------------------------
       NWT REQUIRED            6 OUTER ITERATIONS 
       AND A TOTAL OF          9 INNER ITERATIONS.
    ------------------------------------------------

 NO OUTPUT CONTROL FOR STRESS PERIOD   42   TIME STEP    6
 
 WELLS WITH REDUCED PUMPING FOR STRESS PERIOD    42 TIME STEP     6
   LAY   ROW   COL         APPL.Q          ACT.Q        GW-HEAD       CELL-BOT
     1     3    50  -0.539969E+00  -0.263292E+00   0.550745E+01   0.000000E+00
     1     5    55  -0.539969E+00  -0.202239E+00   0.461267E+01   0.000000E+00
 
 
 SOLVING FOR HEAD 
                                                   Max.-Head-Change                         Max.-Flux-Residual
  Residual-Control   Outer-Iter.   Inner-Iter.     Column Row Layer    Maximum-Head-Change  Column Row Layer    Maximum-Flux-Residual          L2-NORM 
          0                 1           2            50    3     1       0.6027500800E-01      50    3    1         0.1043924147E-01      0.2238464479E-01
          0                 2           2            50    3     1      -0.5409869575E-02      50    3    1        -0.1045832621E-02      0.2068477521E-02
          0                 3           2            50    2     1       0.4688471777E-03      50    3    1         0.9410345937E-04      0.1881760088E-03
          0                 4           1            50    2     1      -0.3718712476E-04      50    3    1        -0.7537769448E-05      0.1521289921E-04
          0                 5           1            50    2     1       0.2590269356E-05      50    3    1         0.5298861724E-06      0.1074958125E-05
          0                 6           1            50    2     1      -0.1555379986E-06      50    3    1        -0.3210835336E-07      0.6531437710E-07

    ------------------------------------------------
       NWT REQUIRED            6 OUTER ITERATIONS 
       AND A TOTAL OF          9 INNER ITERATIONS.
    ------------------------------------------------

 NO OUTPUT CONTROL FOR STRESS PERIOD   42   TIME STEP    7
 
 WELLS WITH REDUCED PUMPING FOR STRESS PERIOD    42 TIME STEP     7
   LAY   ROW   COL         APPL.Q          ACT.Q        GW-HEAD       CELL-BOT
     1     3    50  -0.539938E+00  -0.267275E+00   0.556274E+01   0.000000E+00
     1     5    55  -0.539938E+00  -0.205512E+00   0.465894E+01   0.000000E+00
 
 
 SOLVING FOR HEAD 
                                                   Max.-Head-Change                         Max.-Flux-Residual
  Residual-Control   Outer-Iter.   Inner-Iter.     Column Row Layer    Maximum-Head-Change  Column Row Layer    Maximum-Flux-Residual          L2-NORM 
          0                 1           2            50    2     1       0.5043626349E-01      50    3    1         0.7124459260E-02      0.1888403121E-01
          0                 2           2            50    2     1      -0.4952201443E-02      50    3    1        -0.7121961930E-03      0.1763115398E-02
          0                 3           2            50    2     1       0.4399605602E-03      50    3    1         0.6409422545E-04      0.1610102461E-03
          0                 4           1            50    2     1      -0.3489057626E-04      50    3    1        -0.5133920270E-05      0.1306807032E-04
          0                 5           1            50    2     1       0.2430173916E-05      50    3    1         0.3608949946E-06      0.9260190508E-06
          0                 6           1            50    2     1      -0.1459235508E-06      50    3    1        -0.2186793269E-07      0.5636165352E-07

    ------------------------------------------------
       NWT REQUIRED            6 OUTER ITERATIONS 
       AND A TOTAL OF          9 INNER ITERATIONS.
    ------------------------------------------------

 NO OUTPUT CONTROL FOR STRESS PERIOD   42   TIME STEP    8
 
 WELLS WITH REDUCED PUMPING FOR STRESS PERIOD    42 TIME STEP     8
   LAY   ROW   COL         APPL.Q          ACT.Q        GW-HEAD       CELL-BOT
     1     3    50  -0.539952E+00  -0.270358E+00   0.560528E+01   0.000000E+00
     1     5    55  -0.539952E+00  -0.208035E+00   0.469432E+01   0.000000E+00
 
 
 SOLVING FOR HEAD 
                                                   Max.-Head-Change                         Max.-Flux-Residual
  Residual-Control   Outer-Iter.   Inner-Iter.     Column Row Layer    Maximum-Head-Change  Column Row Layer    Maximum-Flux-Residual          L2-NORM 
          0                 1           2            50    2     1       0.4690237777E-01      50    2    1         0.5380279816E-02      0.1664811524E-01
          0                 2           2            50    2     1      -0.4606493849E-02      50    2    1        -0.5399966255E-03      0.1572354169E-02
          0                 3           2            50    2     1       0.4090923713E-03      50    2    1         0.4857758272E-04      0.1440745808E-03
          0                 4           1            50    2     1      -0.3243640807E-04      50    2    1        -0.3891248154E-05      0.1174087598E-04
          0                 5           1            50    2     1       0.2259075780E-05      50    2    1         0.2735498053E-06      0.8346242237E-06
          0                 6           1            50    2     1      -0.1356476317E-06      50    2    1        -0.1657604318E-07      0.5090387781E-07

    ------------------------------------------------
       NWT REQUIRED            6 OUTER ITERATIONS 
       AND A TOTAL OF          9 INNER ITERATIONS.
    ------------------------------------------------

 NO OUTPUT CONTROL FOR STRESS PERIOD   42   TIME STEP    9
 
 WELLS WITH REDUCED PUMPING FOR STRESS PERIOD    42 TIME STEP     9
   LAY   ROW   COL         APPL.Q          ACT.Q        GW-HEAD       CELL-BOT
     1     3    50  -0.539978E+00  -0.272808E+00   0.563898E+01   0.000000E+00
     1     5    55  -0.539978E+00  -0.210025E+00   0.472210E+01   0.000000E+00
 
 
 SOLVING FOR HEAD 
                                                   Max.-Head-Change                         Max.-Flux-Residual
  Residual-Control   Outer-Iter.   Inner-Iter.     Column Row Layer    Maximum-Head-Change  Column Row Layer    Maximum-Flux-Residual          L2-NORM 
          0                 1           2            50    2     1       0.4352685075E-01      50    2    1         0.4548318103E-02      0.1513138174E-01
          0                 2           2            50    2     1      -0.4274079366E-02      50    2    1        -0.4566376559E-03      0.1445072460E-02
          0                 3           2            50    2     1       0.3794106555E-03      50    2    1         0.4107746226E-04      0.1328789884E-03
          0                 4           1            50    2     1      -0.3007585847E-04      50    2    1        -0.3290469693E-05      0.1087393368E-04
          0                 5           1            50    2     1       0.2094468004E-05      50    2    1         0.2313157809E-06      0.7756927143E-06
          0                 6           1            50    2     1      -0.1257603653E-06      50    2    1        -0.1401682781E-07      0.4742356149E-07

    ------------------------------------------------
       NWT REQUIRED            6 OUTER ITERATIONS 
       AND A TOTAL OF          9 INNER ITERATIONS.
    ------------------------------------------------

 NO OUTPUT CONTROL FOR STRESS PERIOD   42   TIME STEP   10
 
 WELLS WITH REDUCED PUMPING FOR STRESS PERIOD    42 TIME STEP    10
   LAY   ROW   COL         APPL.Q          ACT.Q        GW-HEAD       CELL-BOT
     1     3    50  -0.539954E+00  -0.274800E+00   0.566670E+01   0.000000E+00
     1     5    55  -0.539954E+00  -0.211631E+00   0.474472E+01   0.000000E+00
 
 
 SOLVING FOR HEAD 
                                                   Max.-Head-Change                         Max.-Flux-Residual
  Residual-Control   Outer-Iter.   Inner-Iter.     Column Row Layer    Maximum-Head-Change  Column Row Layer    Maximum-Flux-Residual          L2-NORM 
          0                 1           2            50    2     1       0.4045095934E-01      50    2    1         0.3837318862E-02      0.1405115124E-01
          0                 2           2            50    2     1      -0.3969859913E-02      50    2    1        -0.3852706006E-03      0.1351808603E-02
          0                 3           2            50    2     1       0.3522307364E-03      50    2    1         0.3465750266E-04      0.1246505302E-03
          0                 4           1            50    2     1      -0.2791317649E-04      50    2    1        -0.2776205374E-05      0.1024200281E-04
          0                 5           1            50    2     1       0.1943602689E-05      50    2    1         0.1951636596E-06      0.7332886801E-06
          0                 6           1            50    2     1      -0.1166968291E-06      50    2    1        -0.1182615103E-07      0.4495155425E-07

    ------------------------------------------------
       NWT REQUIRED            6 OUTER ITERATIONS 
       AND A TOTAL OF          9 INNER ITERATIONS.
    ------------------------------------------------

 NO OUTPUT CONTROL FOR STRESS PERIOD   42   TIME STEP   11
 
 WELLS WITH REDUCED PUMPING FOR STRESS PERIOD    42 TIME STEP    11
   LAY   ROW   COL         APPL.Q          ACT.Q        GW-HEAD       CELL-BOT
     1     3    50  -0.540018E+00  -0.276521E+00   0.569006E+01   0.000000E+00
     1     5    55  -0.540018E+00  -0.213003E+00   0.476357E+01   0.000000E+00
 
 
 SOLVING FOR HEAD 
                                                   Max.-Head-Change                         Max.-Flux-Residual
  Residual-Control   Outer-Iter.   Inner-Iter.     Column Row Layer    Maximum-Head-Change  Column Row Layer    Maximum-Flux-Residual          L2-NORM 
          0                 1           2            50    1     1       0.3848800835E-01      50    2    1         0.3242116470E-02      0.1326341332E-01
          0                 2           2            50    1     1      -0.3808272457E-02      50    2    1        -0.3254517880E-03      0.1282108766E-02
          0                 3           2            50    1     1       0.3391895327E-03      50    2    1         0.2927707917E-04      0.1184948258E-03
          0                 4           1            50    1     1      -0.2691108734E-04      50    2    1        -0.2345206643E-05      0.9774091454E-05
          0                 5           1            50    1     1       0.1873992014E-05      50    2    1         0.1648650361E-06      0.7024023506E-06
          0                 6           1            50    1     1      -0.1125008905E-06      50    2    1        -0.9990173105E-08      0.4318447877E-07

    ------------------------------------------------
       NWT REQUIRED            6 OUTER ITERATIONS 
       AND A TOTAL OF          9 INNER ITERATIONS.
    ------------------------------------------------

 NO OUTPUT CONTROL FOR STRESS PERIOD   42   TIME STEP   12
 
 WELLS WITH REDUCED PUMPING FOR STRESS PERIOD    42 TIME STEP    12
   LAY   ROW   COL         APPL.Q          ACT.Q        GW-HEAD       CELL-BOT
     1     3    50  -0.540027E+00  -0.278007E+00   0.571053E+01   0.000000E+00
     1     5    55  -0.540027E+00  -0.214179E+00   0.477996E+01   0.000000E+00
 
 
 SOLVING FOR HEAD 
                                                   Max.-Head-Change                         Max.-Flux-Residual
  Residual-Control   Outer-Iter.   Inner-Iter.     Column Row Layer    Maximum-Head-Change  Column Row Layer    Maximum-Flux-Residual          L2-NORM 
          0                 1           2            50    1     1       0.3833542939E-01      50    1    1         0.2802163161E-02      0.1260122276E-01
          0                 2           2            50    1     1      -0.3793055895E-02      50    1    1        -0.2807448255E-03      0.1223645482E-02
          0                 3           2            50    1     1       0.3377569215E-03      50    1    1         0.2526160647E-04      0.1134398507E-03
          0                 4           1            50    1     1      -0.2679427076E-04      50    1    1        -0.2023499182E-05      0.9397885396E-05
          0                 5           1            50    1     1       0.1865538949E-05      50    1    1         0.1421869160E-06      0.6781325828E-06
          0                 6           1            50    1     1      -0.1119799526E-06      50    1    1        -0.8612556779E-08      0.4182952846E-07

    ------------------------------------------------
       NWT REQUIRED            6 OUTER ITERATIONS 
       AND A TOTAL OF          9 INNER ITERATIONS.
    ------------------------------------------------

 NO OUTPUT CONTROL FOR STRESS PERIOD   42   TIME STEP   13
 
 WELLS WITH REDUCED PUMPING FOR STRESS PERIOD    42 TIME STEP    13
   LAY   ROW   COL         APPL.Q          ACT.Q        GW-HEAD       CELL-BOT
     1     3    50  -0.540027E+00  -0.279342E+00   0.572900E+01   0.000000E+00
     1     5    55  -0.540027E+00  -0.215229E+00   0.479463E+01   0.000000E+00
 
 
 SOLVING FOR HEAD 
                                                   Max.-Head-Change                         Max.-Flux-Residual
  Residual-Control   Outer-Iter.   Inner-Iter.     Column Row Layer    Maximum-Head-Change  Column Row Layer    Maximum-Flux-Residual          L2-NORM 
          0                 1           2            50    1     1       0.3775463247E-01      50    1    1         0.2537325151E-02      0.1207015553E-01
          0                 2           2            50    1     1      -0.3734671594E-02      50    1    1        -0.2542929118E-03      0.1175266666E-02
          0                 3           2            50    1     1       0.3324626339E-03      50    1    1         0.2288061482E-04      0.1092388171E-03
          0                 4           1            50    1     1      -0.2636998855E-04      50    1    1        -0.1832784247E-05      0.9087828646E-05
          0                 5           1            50    1     1       0.1835554283E-05      50    1    1         0.1287579940E-06      0.6584511517E-06
          0                 6           1            50    1     1      -0.1101613615E-06      50    1    1        -0.7797711032E-08      0.4075385187E-07

    ------------------------------------------------
       NWT REQUIRED            6 OUTER ITERATIONS 
       AND A TOTAL OF          9 INNER ITERATIONS.
    ------------------------------------------------

 NO OUTPUT CONTROL FOR STRESS PERIOD   42   TIME STEP   14
 
 WELLS WITH REDUCED PUMPING FOR STRESS PERIOD    42 TIME STEP    14
   LAY   ROW   COL         APPL.Q          ACT.Q        GW-HEAD       CELL-BOT
     1     3    50  -0.540011E+00  -0.280567E+00   0.574607E+01   0.000000E+00
     1     5    55  -0.540011E+00  -0.216189E+00   0.480811E+01   0.000000E+00
 
 
 SOLVING FOR HEAD 
                                                   Max.-Head-Change                         Max.-Flux-Residual
  Residual-Control   Outer-Iter.   Inner-Iter.     Column Row Layer    Maximum-Head-Change  Column Row Layer    Maximum-Flux-Residual          L2-NORM 
          0                 1           2            50    1     1       0.3686652990E-01      50    1    1         0.2271762488E-02      0.1161952283E-01
          0                 2           2            50    1     1      -0.3645161431E-02      50    1    1        -0.2277218946E-03      0.1133156889E-02
          0                 3           2            50    1     1       0.3243769153E-03      50    1    1         0.2048936621E-04      0.1055792194E-03
          0                 4           1            50    1     1      -0.2572296418E-04      50    1    1        -0.1641244060E-05      0.8820559927E-05
          0                 5           1            50    1     1       0.1789897282E-05      50    1    1         0.1152654699E-06      0.6418012872E-06
          0                 6           1            50    1     1      -0.1073951711E-06      50    1    1        -0.6978763512E-08      0.3986838874E-07

    ------------------------------------------------
       NWT REQUIRED            6 OUTER ITERATIONS 
       AND A TOTAL OF          9 INNER ITERATIONS.
    ------------------------------------------------

 NO OUTPUT CONTROL FOR STRESS PERIOD   42   TIME STEP   15
 
 WELLS WITH REDUCED PUMPING FOR STRESS PERIOD    42 TIME STEP    15
   LAY   ROW   COL         APPL.Q          ACT.Q        GW-HEAD       CELL-BOT
     1     3    50  -0.540011E+00  -0.281724E+00   0.576207E+01   0.000000E+00
     1     5    55  -0.540011E+00  -0.217093E+00   0.482072E+01   0.000000E+00
 
 
 SOLVING FOR HEAD 
                                                   Max.-Head-Change                         Max.-Flux-Residual
  Residual-Control   Outer-Iter.   Inner-Iter.     Column Row Layer    Maximum-Head-Change  Column Row Layer    Maximum-Flux-Residual          L2-NORM 
          0                 1           2            50    1     1       0.3577844610E-01      50    1    1         0.2016743286E-02      0.1123130814E-01
          0                 2           2            50    1     1      -0.3535205112E-02      50    1    1        -0.2021758557E-03      0.1096283375E-02
          0                 3           2            50    1     1       0.3144480086E-03      50    1    1         0.1819065695E-04      0.1023896255E-03
          0                 4           1            50    1     1      -0.2492820743E-04      50    1    1        -0.1457113964E-05      0.8590898551E-05
          0                 5           1            50    1     1       0.1733759283E-05      50    1    1         0.1022882905E-06      0.6277715277E-06
          0                 6           1            50    1     1      -0.1039918858E-06      50    1    1        -0.6190814250E-08      0.3914386805E-07

    ------------------------------------------------
       NWT REQUIRED            6 OUTER ITERATIONS 
       AND A TOTAL OF          9 INNER ITERATIONS.
    ------------------------------------------------

 NO OUTPUT CONTROL FOR STRESS PERIOD   42   TIME STEP   16
 
 WELLS WITH REDUCED PUMPING FOR STRESS PERIOD    42 TIME STEP    16
   LAY   ROW   COL         APPL.Q          ACT.Q        GW-HEAD       CELL-BOT
     1     3    50  -0.540011E+00  -0.282824E+00   0.577729E+01   0.000000E+00
     1     5    55  -0.540011E+00  -0.217953E+00   0.483270E+01   0.000000E+00
 
 
 SOLVING FOR HEAD 
                                                   Max.-Head-Change                         Max.-Flux-Residual
  Residual-Control   Outer-Iter.   Inner-Iter.     Column Row Layer    Maximum-Head-Change  Column Row Layer    Maximum-Flux-Residual          L2-NORM 
          0                 1           2            50    1     1       0.3457768976E-01      50    1    1         0.1779403751E-02      0.1089423125E-01
          0                 2           2            50    1     1      -0.3413525021E-02      50    1    1        -0.1783828929E-03      0.1063975169E-02
          0                 3           2            50    1     1       0.3034493316E-03      50    1    1         0.1604987248E-04      0.9958551808E-04
          0                 4           1            50    1     1      -0.2404683200E-04      50    1    1        -0.1285632470E-05      0.8390182272E-05
          0                 5           1            50    1     1       0.1671342926E-05      50    1    1         0.9019360475E-07      0.6156689511E-06
          0                 6           1            50    1     1      -0.1002016114E-06      50    1    1        -0.5456070540E-08      0.3853644420E-07

    ------------------------------------------------
       NWT REQUIRED            6 OUTER ITERATIONS 
       AND A TOTAL OF          9 INNER ITERATIONS.
    ------------------------------------------------

 NO OUTPUT CONTROL FOR STRESS PERIOD   42   TIME STEP   17
 
 WELLS WITH REDUCED PUMPING FOR STRESS PERIOD    42 TIME STEP    17
   LAY   ROW   COL         APPL.Q          ACT.Q        GW-HEAD       CELL-BOT
     1     3    50  -0.540023E+00  -0.283887E+00   0.579192E+01   0.000000E+00
     1     5    55  -0.540023E+00  -0.218785E+00   0.484423E+01   0.000000E+00
 
 
 SOLVING FOR HEAD 
                                                   Max.-Head-Change                         Max.-Flux-Residual
  Residual-Control   Outer-Iter.   Inner-Iter.     Column Row Layer    Maximum-Head-Change  Column Row Layer    Maximum-Flux-Residual          L2-NORM 
          0                 1           2            51    1     1       0.3422497624E-01      50    1    1         0.1563481054E-02      0.1064683672E-01
          0                 2           2            51    1     1      -0.3366628398E-02      50    1    1        -0.1567260083E-03      0.1040376772E-02
          0                 3           2            51    1     1       0.2988647262E-03      50    1    1         0.1410139085E-04      0.9747292003E-04
          0                 4           1            51    1     1      -0.2367212721E-04      50    1    1        -0.1129553984E-05      0.8235893485E-05
          0                 5           1            51    1     1       0.1646368740E-05      50    1    1         0.7917474976E-07      0.6062717661E-06
          0                 6           1            51    1     1      -0.9876888745E-07      50    1    1        -0.4786252672E-08      0.3807016336E-07

    ------------------------------------------------
       NWT REQUIRED            6 OUTER ITERATIONS 
       AND A TOTAL OF          9 INNER ITERATIONS.
    ------------------------------------------------

 NO OUTPUT CONTROL FOR STRESS PERIOD   42   TIME STEP   18
 
 WELLS WITH REDUCED PUMPING FOR STRESS PERIOD    42 TIME STEP    18
   LAY   ROW   COL         APPL.Q          ACT.Q        GW-HEAD       CELL-BOT
     1     3    50  -0.540018E+00  -0.284914E+00   0.580619E+01   0.000000E+00
     1     5    55  -0.540018E+00  -0.219592E+00   0.485550E+01   0.000000E+00
 
 
 SOLVING FOR HEAD 
                                                   Max.-Head-Change                         Max.-Flux-Residual
  Residual-Control   Outer-Iter.   Inner-Iter.     Column Row Layer    Maximum-Head-Change  Column Row Layer    Maximum-Flux-Residual          L2-NORM 
          0                 1           2            51    1     1       0.3563818429E-01      51    1    1         0.1407331778E-02      0.1035730881E-01
          0                 2           2            51    1     1      -0.3501871090E-02      51    1    1        -0.1410056287E-03      0.1012745602E-02
          0                 3           2            51    1     1       0.3105818128E-03      51    1    1         0.1268737959E-04      0.9500417534E-04
          0                 4           1            51    1     1      -0.2458573692E-04      51    1    1        -0.1016286074E-05      0.8051437829E-05
          0                 5           1            51    1     1       0.1708745051E-05      51    1    1         0.7144375067E-07      0.5944968209E-06
          0                 6           1            51    1     1      -0.1024670773E-06      51    1    1        -0.4329209963E-08      0.3744965176E-07

    ------------------------------------------------
       NWT REQUIRED            6 OUTER ITERATIONS 
       AND A TOTAL OF          9 INNER ITERATIONS.
    ------------------------------------------------

 NO OUTPUT CONTROL FOR STRESS PERIOD   42   TIME STEP   19
 
 WELLS WITH REDUCED PUMPING FOR STRESS PERIOD    42 TIME STEP    19
   LAY   ROW   COL         APPL.Q          ACT.Q        GW-HEAD       CELL-BOT
     1     3    50  -0.539988E+00  -0.285915E+00   0.582025E+01   0.000000E+00
     1     5    55  -0.539988E+00  -0.220383E+00   0.486667E+01   0.000000E+00
 
 
 SOLVING FOR HEAD 
                                                   Max.-Head-Change                         Max.-Flux-Residual
  Residual-Control   Outer-Iter.   Inner-Iter.     Column Row Layer    Maximum-Head-Change  Column Row Layer    Maximum-Flux-Residual          L2-NORM 
          0                 1           2            51    1     1       0.3682529215E-01      51    1    1         0.1332352557E-02      0.1004234841E-01
          0                 2           2            51    1     1      -0.3613594494E-02      51    1    1        -0.1335224357E-03      0.9798106397E-03
          0                 3           2            51    1     1       0.3201348536E-03      51    1    1         0.1201369586E-04      0.9195070803E-04
          0                 4           1            51    1     1      -0.2532305990E-04      51    1    1        -0.9623258398E-06      0.7817903624E-05
          0                 5           1            51    1     1       0.1758235801E-05      51    1    1         0.6765038585E-07      0.5792093553E-06
          0                 6           1            51    1     1      -0.1053656912E-06      51    1    1        -0.4099346973E-08      0.3662035738E-07

    ------------------------------------------------
       NWT REQUIRED            6 OUTER ITERATIONS 
       AND A TOTAL OF          9 INNER ITERATIONS.
    ------------------------------------------------

 NO OUTPUT CONTROL FOR STRESS PERIOD   42   TIME STEP   20
 
 WELLS WITH REDUCED PUMPING FOR STRESS PERIOD    42 TIME STEP    20
   LAY   ROW   COL         APPL.Q          ACT.Q        GW-HEAD       CELL-BOT
     1     3    50  -0.539984E+00  -0.286908E+00   0.583405E+01   0.000000E+00
     1     5    55  -0.539984E+00  -0.221174E+00   0.487770E+01   0.000000E+00
 
 
 SOLVING FOR HEAD 
                                                   Max.-Head-Change                         Max.-Flux-Residual
  Residual-Control   Outer-Iter.   Inner-Iter.     Column Row Layer    Maximum-Head-Change  Column Row Layer    Maximum-Flux-Residual          L2-NORM 
          0                 1           2            51    1     1       0.3782609454E-01      51    1    1         0.1251732761E-02      0.1026761860E-01
          0                 2           2            51    1     1      -0.3705657503E-02      51    1    1        -0.1254588865E-03      0.9561096880E-03
          0                 3           2            51    1     1       0.3278598362E-03      51    1    1         0.1128794135E-04      0.8740407799E-04
          0                 4           1            51    1     1      -0.2590912217E-04      51    1    1        -0.9041934697E-06      0.7398771155E-05
          0                 5           1            51    1     1       0.1795556618E-05      51    1    1         0.6356373133E-07      0.5508485209E-06
          0                 6           1            51    1     1      -0.1074474097E-06      51    1    1        -0.3851711922E-08      0.3514460543E-07

    ------------------------------------------------
       NWT REQUIRED            6 OUTER ITERATIONS 
       AND A TOTAL OF          9 INNER ITERATIONS.
    ------------------------------------------------

 NO OUTPUT CONTROL FOR STRESS PERIOD   42   TIME STEP   21
 
 WELLS WITH REDUCED PUMPING FOR STRESS PERIOD    42 TIME STEP    21
   LAY   ROW   COL         APPL.Q          ACT.Q        GW-HEAD       CELL-BOT
     1     3    50  -0.540000E+00  -0.287895E+00   0.584759E+01   0.000000E+00
     1     5    55  -0.540000E+00  -0.221966E+00   0.488863E+01   0.000000E+00
 
 
 SOLVING FOR HEAD 
                                                   Max.-Head-Change                         Max.-Flux-Residual
  Residual-Control   Outer-Iter.   Inner-Iter.     Column Row Layer    Maximum-Head-Change  Column Row Layer    Maximum-Flux-Residual          L2-NORM 
          0                 1           2            51    1     1       0.3868741788E-01      51    1    1         0.1169043302E-02      0.1091116767E-01
          0                 2           2            51    1     1      -0.3782621633E-02      51    1    1        -0.1171752770E-03      0.9853640167E-03
          0                 3           2            51    1     1       0.3341550855E-03      51    1    1         0.1054251105E-04      0.8831717453E-04
          0                 4           1            51    1     1      -0.2637519190E-04      51    1    1        -0.8444840543E-06      0.7463945926E-05
          0                 5           1            51    1     1       0.1823245214E-05      51    1    1         0.5936621847E-07      0.5591677077E-06
          0                 6           1            51    1     1      -0.1088686390E-06       4    4    1        -0.4104375506E-08      0.3603247833E-07

    ------------------------------------------------
       NWT REQUIRED            6 OUTER ITERATIONS 
       AND A TOTAL OF          9 INNER ITERATIONS.
    ------------------------------------------------

 NO OUTPUT CONTROL FOR STRESS PERIOD   42   TIME STEP   22
 
 WELLS WITH REDUCED PUMPING FOR STRESS PERIOD    42 TIME STEP    22
   LAY   ROW   COL         APPL.Q          ACT.Q        GW-HEAD       CELL-BOT
     1     3    50  -0.539996E+00  -0.288866E+00   0.586107E+01   0.000000E+00
     1     5    55  -0.539996E+00  -0.222755E+00   0.489961E+01   0.000000E+00
 
 
 SOLVING FOR HEAD 
                                                   Max.-Head-Change                         Max.-Flux-Residual
  Residual-Control   Outer-Iter.   Inner-Iter.     Column Row Layer    Maximum-Head-Change  Column Row Layer    Maximum-Flux-Residual          L2-NORM 
          0                 1           2            51    1     1       0.3945393596E-01      51    1    1         0.1087162704E-02      0.1121939907E-01
          0                 2           2            51    1     1      -0.3848927059E-02      51    1    1        -0.1089632224E-03      0.1031869583E-02
          0                 3           2            51    1     1       0.3394105242E-03      51    1    1         0.9803613599E-05      0.9415188865E-04
          0                 4           1            51    1     1      -0.2675222812E-04      51    1    1        -0.7852971938E-06      0.8066618771E-05
          0                 5           1            51    1     1       0.1844145609E-05       6    4    1         0.6575718814E-07      0.6084071899E-06
          0                 6           1            51    1     1      -0.1098735402E-06       4    4    1        -0.4974175738E-08      0.3935465147E-07

    ------------------------------------------------
       NWT REQUIRED            6 OUTER ITERATIONS 
       AND A TOTAL OF          9 INNER ITERATIONS.
    ------------------------------------------------

 NO OUTPUT CONTROL FOR STRESS PERIOD   42   TIME STEP   23
 
 WELLS WITH REDUCED PUMPING FOR STRESS PERIOD    42 TIME STEP    23
   LAY   ROW   COL         APPL.Q          ACT.Q        GW-HEAD       CELL-BOT
     1     3    50  -0.540010E+00  -0.289836E+00   0.587442E+01   0.000000E+00
     1     5    55  -0.540010E+00  -0.223554E+00   0.491063E+01   0.000000E+00
 
 
 SOLVING FOR HEAD 
                                                   Max.-Head-Change                         Max.-Flux-Residual
  Residual-Control   Outer-Iter.   Inner-Iter.     Column Row Layer    Maximum-Head-Change  Column Row Layer    Maximum-Flux-Residual          L2-NORM 
          0                 1           2            51    1     1       0.4016859323E-01      62    4    1         0.1096637815E-02      0.1146132096E-01
          0                 2           2            51    1     1      -0.3908809102E-02      51    1    1        -0.1010287343E-03      0.1071286433E-02
          0                 3           2            51    1     1       0.3439975786E-03      51    1    1         0.9089758732E-05      0.9900327098E-04
          0                 4           1            51    1     1      -0.2706812545E-04      51    1    1        -0.7281157651E-06      0.8553580557E-05
          0                 5           1            51    1     1       0.1859206537E-05       2    4    1         0.7138809011E-07      0.6464332807E-06
          0                 6           1            51    1     1      -0.1104666444E-06       2    4    1        -0.5347722265E-08      0.4184542401E-07

    ------------------------------------------------
       NWT REQUIRED            6 OUTER ITERATIONS 
       AND A TOTAL OF          9 INNER ITERATIONS.
    ------------------------------------------------

 NO OUTPUT CONTROL FOR STRESS PERIOD   42   TIME STEP   24
 
 WELLS WITH REDUCED PUMPING FOR STRESS PERIOD    42 TIME STEP    24
   LAY   ROW   COL         APPL.Q          ACT.Q        GW-HEAD       CELL-BOT
     1     3    50  -0.539998E+00  -0.290795E+00   0.588780E+01   0.000000E+00
     1     5    55  -0.539998E+00  -0.224355E+00   0.492183E+01   0.000000E+00
 
 
 SOLVING FOR HEAD 
                                                   Max.-Head-Change                         Max.-Flux-Residual
  Residual-Control   Outer-Iter.   Inner-Iter.     Column Row Layer    Maximum-Head-Change  Column Row Layer    Maximum-Flux-Residual          L2-NORM 
          0                 1           2            52    1     1       0.4231667838E-01      51    1    1         0.9332879106E-03      0.1162855978E-01
          0                 2           2            52    1     1      -0.4091234618E-02      51    1    1        -0.9351243341E-04      0.1097246299E-02
          0                 3           2            52    1     1       0.3586620643E-03      51    1    1         0.8413571647E-05      0.1020838673E-03
          0                 4           1            52    1     1      -0.2811798603E-04       1    4    1        -0.7485128855E-06      0.8861800063E-05
          0                 5           1            52    1     1       0.1893063324E-05       2    4    1         0.7369316180E-07      0.6694025542E-06
          0                 6           1            51    1     1      -0.1106389474E-06       2    4    1        -0.5521560098E-08      0.4332015988E-07

    ------------------------------------------------
       NWT REQUIRED            6 OUTER ITERATIONS 
       AND A TOTAL OF          9 INNER ITERATIONS.
    ------------------------------------------------

 NO OUTPUT CONTROL FOR STRESS PERIOD   42   TIME STEP   25
 
 WELLS WITH REDUCED PUMPING FOR STRESS PERIOD    42 TIME STEP    25
   LAY   ROW   COL         APPL.Q          ACT.Q        GW-HEAD       CELL-BOT
     1     3    50  -0.540006E+00  -0.291758E+00   0.590110E+01   0.000000E+00
     1     5    55  -0.540006E+00  -0.225173E+00   0.493313E+01   0.000000E+00
 
 
 SOLVING FOR HEAD 
                                                   Max.-Head-Change                         Max.-Flux-Residual
  Residual-Control   Outer-Iter.   Inner-Iter.     Column Row Layer    Maximum-Head-Change  Column Row Layer    Maximum-Flux-Residual          L2-NORM 
          0                 1           3            52    1     1       0.4519295984E-01      52    1    1         0.8943538768E-03      0.1167249320E-01
          0                 2           2            52    1     1      -0.4359011115E-02      52    1    1        -0.8956819256E-04      0.1111995278E-02
          0                 3           2            52    1     1       0.3812079983E-03      52    1    1         0.8058831958E-05      0.1041357586E-03
          0                 4           1            52    1     1      -0.2981169834E-04       1    4    1        -0.7667807829E-06      0.9080078133E-05
          0                 5           1            52    1     1       0.1988657757E-05       2    4    1         0.7551958703E-07      0.6847985195E-06
          0                 6           1            52    1     1      -0.1153400258E-06       2    4    1        -0.5658701951E-08      0.4427504432E-07

    ------------------------------------------------
       NWT REQUIRED            6 OUTER ITERATIONS 
       AND A TOTAL OF         10 INNER ITERATIONS.
    ------------------------------------------------

 NO OUTPUT CONTROL FOR STRESS PERIOD   42   TIME STEP   26
 
 WELLS WITH REDUCED PUMPING FOR STRESS PERIOD    42 TIME STEP    26
   LAY   ROW   COL         APPL.Q          ACT.Q        GW-HEAD       CELL-BOT
     1     3    50  -0.540003E+00  -0.292718E+00   0.591443E+01   0.000000E+00
     1     5    55  -0.540003E+00  -0.226002E+00   0.494465E+01   0.000000E+00
 
 
 SOLVING FOR HEAD 
                                                   Max.-Head-Change                         Max.-Flux-Residual
  Residual-Control   Outer-Iter.   Inner-Iter.     Column Row Layer    Maximum-Head-Change  Column Row Layer    Maximum-Flux-Residual          L2-NORM 
          0                 1           3            52    1     1       0.4786970958E-01      52    1    1         0.8684948301E-03      0.1165819469E-01
          0                 2           2            52    1     1      -0.4609328547E-02      52    1    1        -0.8701427242E-04      0.1119216027E-02
          0                 3           2            52    1     1       0.4022141124E-03      52    1    1         0.7828551460E-05      0.1053354942E-03
          0                 4           1            52    1     1      -0.3137074385E-04       3    4    1        -0.7824108792E-06      0.9219881017E-05
          0                 5           1            52    1     1       0.2067909675E-05       2    4    1         0.7726809770E-07      0.6933146110E-06
          0                 6           1            53    7     1      -0.1191496417E-06       2    4    1        -0.5783888923E-08      0.4475223452E-07

    ------------------------------------------------
       NWT REQUIRED            6 OUTER ITERATIONS 
       AND A TOTAL OF         10 INNER ITERATIONS.
    ------------------------------------------------

 NO OUTPUT CONTROL FOR STRESS PERIOD   42   TIME STEP   27
 
 WELLS WITH REDUCED PUMPING FOR STRESS PERIOD    42 TIME STEP    27
   LAY   ROW   COL         APPL.Q          ACT.Q        GW-HEAD       CELL-BOT
     1     3    50  -0.540001E+00  -0.293659E+00   0.592751E+01   0.000000E+00
     1     5    55  -0.540001E+00  -0.226830E+00   0.495613E+01   0.000000E+00
 
 
 SOLVING FOR HEAD 
                                                   Max.-Head-Change                         Max.-Flux-Residual
  Residual-Control   Outer-Iter.   Inner-Iter.     Column Row Layer    Maximum-Head-Change  Column Row Layer    Maximum-Flux-Residual          L2-NORM 
          0                 1           3            52    1     1       0.4938711646E-01      52    1    1         0.8364286010E-03      0.1155475293E-01
          0                 2           2            52    1     1      -0.4779075075E-02      52    1    1        -0.8389887566E-04      0.1123962138E-02
          0                 3           2            52    1     1       0.4179775452E-03      52    1    1         0.7547442626E-05      0.1064903960E-03
          0                 4           1            52    1     1      -0.3260424860E-04       1    4    1        -0.8263195070E-06      0.9352406721E-05
          0                 5           1            52    1     1       0.2121856583E-05       2    4    1         0.8050351852E-07      0.6993736165E-06
          0                 6           1            53    7     1      -0.1232897589E-06       2    4    1        -0.5969258865E-08      0.4498042192E-07

    ------------------------------------------------
       NWT REQUIRED            6 OUTER ITERATIONS 
       AND A TOTAL OF         10 INNER ITERATIONS.
    ------------------------------------------------

 NO OUTPUT CONTROL FOR STRESS PERIOD   42   TIME STEP   28
 
 WELLS WITH REDUCED PUMPING FOR STRESS PERIOD    42 TIME STEP    28
   LAY   ROW   COL         APPL.Q          ACT.Q        GW-HEAD       CELL-BOT
     1     3    50  -0.539991E+00  -0.294458E+00   0.593867E+01   0.000000E+00
     1     5    55  -0.539991E+00  -0.227534E+00   0.496596E+01   0.000000E+00
 
 
 SOLVING FOR HEAD 
                                                   Max.-Head-Change                         Max.-Flux-Residual
  Residual-Control   Outer-Iter.   Inner-Iter.     Column Row Layer    Maximum-Head-Change  Column Row Layer    Maximum-Flux-Residual          L2-NORM 
          0                 1           3             1    1     1      -0.5282490061E-01      52    1    1         0.7841292490E-03      0.1139348664E-01
          0                 2           2            52    1     1      -0.4780494369E-02      52    1    1        -0.7875276155E-04      0.1111110207E-02
          0                 3           2            52    1     1       0.4184222719E-03      52    1    1         0.7083564176E-05      0.1055879774E-03
          0                 4           1            52    1     1      -0.3260795179E-04       1    4    1        -0.8319982818E-06      0.9309433027E-05
          0                 5           1            53    7     1       0.2112641353E-05       2    4    1         0.8114909278E-07      0.6920340321E-06
          0                 6           1            53    7     1      -0.1221082869E-06       2    4    1        -0.5993907592E-08      0.4436386570E-07

    ------------------------------------------------
       NWT REQUIRED            6 OUTER ITERATIONS 
       AND A TOTAL OF         10 INNER ITERATIONS.
    ------------------------------------------------

 NO OUTPUT CONTROL FOR STRESS PERIOD   42   TIME STEP   29
 
 WELLS WITH REDUCED PUMPING FOR STRESS PERIOD    42 TIME STEP    29
   LAY   ROW   COL         APPL.Q          ACT.Q        GW-HEAD       CELL-BOT
     1     3    50  -0.540006E+00  -0.295197E+00   0.594882E+01   0.000000E+00
     1     5    55  -0.540006E+00  -0.228183E+00   0.497486E+01   0.000000E+00
 
 
 SOLVING FOR HEAD 
                                                   Max.-Head-Change                         Max.-Flux-Residual
  Residual-Control   Outer-Iter.   Inner-Iter.     Column Row Layer    Maximum-Head-Change  Column Row Layer    Maximum-Flux-Residual          L2-NORM 
          0                 1           3             1    1     1      -0.5797660165E-01       1    2    1        -0.7675155518E-03      0.1126399615E-01
          0                 2           2             1    1     1       0.5187069384E-02       1    7    1         0.7674524321E-04      0.1092199424E-02
          0                 3           2             1    1     1      -0.4161168637E-03       1    7    1        -0.6907609485E-05      0.1040413906E-03
          0                 4           1            52    1     1      -0.3168992243E-04       1    4    1        -0.8357473220E-06      0.9219405651E-05
          0                 5           1            53    1     1       0.2029950143E-05       2    4    1         0.8162405152E-07      0.6803516682E-06
          0                 6           1            53    1     1      -0.1160062485E-06       2    4    1        -0.5996984243E-08      0.4345128658E-07

    ------------------------------------------------
       NWT REQUIRED            6 OUTER ITERATIONS 
       AND A TOTAL OF         10 INNER ITERATIONS.
    ------------------------------------------------

 NO OUTPUT CONTROL FOR STRESS PERIOD   42   TIME STEP   30
 
 WELLS WITH REDUCED PUMPING FOR STRESS PERIOD    42 TIME STEP    30
   LAY   ROW   COL         APPL.Q          ACT.Q        GW-HEAD       CELL-BOT
     1     3    50  -0.540009E+00  -0.296063E+00   0.596081E+01   0.000000E+00
     1     5    55  -0.540009E+00  -0.228990E+00   0.498602E+01   0.000000E+00
 



 STREAM LISTING     PERIOD     42   STEP       30

 LAYER ROW COL. STREAM  RCH.   FLOW INTO    STREAM     FLOW OUT OF   OVRLND.    DIRECT     STREAM      STREAM      STREAM     STREAM  STREAMBED   FLOW TO   CHNG. UNSAT. 
                SEG.NO.  NO.   STRM. RCH.    LOSS       STRM. RCH.   RUNOFF     PRECIP       ET         HEAD        DEPTH      WIDTH  CONDCTNC.   WAT. TAB.

   1    4    1     1     1    9.1100E+00  2.7473E-03   9.1073E+00  0.000E+00  0.000E+00  0.000E+00  1.42146E+02  2.296E+00  4.559E+00  9.827E-04  2.709E-03  3.847E-05
   1    4    2     1     2    9.1073E+00  2.7466E-03   9.1045E+00  0.000E+00  0.000E+00  0.000E+00  1.41845E+02  2.295E+00  4.559E+00  9.826E-04  2.708E-03  3.846E-05
   1    4    3     1     3    9.1045E+00  2.7459E-03   9.1018E+00  0.000E+00  0.000E+00  0.000E+00  1.41545E+02  2.295E+00  4.558E+00  9.825E-04  2.707E-03  3.843E-05
   1    4    4     1     4    9.1018E+00  2.7453E-03   9.0990E+00  0.000E+00  0.000E+00  0.000E+00  1.41244E+02  2.294E+00  4.558E+00  9.824E-04  2.707E-03  3.837E-05
   1    4    5     1     5    9.0990E+00  2.7446E-03   9.0963E+00  0.000E+00  0.000E+00  0.000E+00  1.40944E+02  2.294E+00  4.557E+00  9.823E-04  2.706E-03  3.828E-05
   1    4    6     1     6    9.0963E+00  2.7439E-03   9.0935E+00  0.000E+00  0.000E+00  0.000E+00  1.40644E+02  2.294E+00  4.557E+00  9.822E-04  2.706E-03  3.817E-05
   1    4    7     1     7    9.0935E+00  2.7433E-03   9.0908E+00  0.000E+00  0.000E+00  0.000E+00  1.40343E+02  2.293E+00  4.556E+00  9.820E-04  2.705E-03  3.803E-05
   1    4    8     1     8    9.0908E+00  2.7426E-03   9.0880E+00  0.000E+00  0.000E+00  0.000E+00  1.40043E+02  2.293E+00  4.556E+00  9.819E-04  2.705E-03  3.787E-05
   1    4    9     1     9    9.0880E+00  2.7419E-03   9.0853E+00  0.000E+00  0.000E+00  0.000E+00  1.39743E+02  2.293E+00  4.556E+00  9.818E-04  2.704E-03  3.767E-05
   1    4   10     1    10    9.0853E+00  2.7413E-03   9.0826E+00  0.000E+00  0.000E+00  0.000E+00  1.39442E+02  2.292E+00  4.555E+00  9.817E-04  2.704E-03  3.745E-05
   1    4   11     1    11    9.0826E+00  2.7406E-03   9.0798E+00  0.000E+00  0.000E+00  0.000E+00  1.39142E+02  2.292E+00  4.555E+00  9.816E-04  2.703E-03  3.720E-05
   1    4   12     1    12    9.0798E+00  2.7399E-03   9.0771E+00  0.000E+00  0.000E+00  0.000E+00  1.38842E+02  2.292E+00  4.554E+00  9.815E-04  2.703E-03  3.691E-05
   1    4   13     1    13    9.0771E+00  2.7393E-03   9.0743E+00  0.000E+00  0.000E+00  0.000E+00  1.38541E+02  2.291E+00  4.554E+00  9.814E-04  2.703E-03  3.660E-05
   1    4   14     1    14    9.0743E+00  2.7386E-03   9.0716E+00  0.000E+00  0.000E+00  0.000E+00  1.38241E+02  2.291E+00  4.553E+00  9.812E-04  2.702E-03  3.625E-05
   1    4   15     1    15    9.0716E+00  2.7379E-03   9.0689E+00  0.000E+00  0.000E+00  0.000E+00  1.37941E+02  2.291E+00  4.553E+00  9.811E-04  2.702E-03  3.587E-05
   1    4   16     1    16    9.0689E+00  2.7373E-03   9.0661E+00  0.000E+00  0.000E+00  0.000E+00  1.37640E+02  2.290E+00  4.553E+00  9.810E-04  2.702E-03  3.545E-05
   1    4   17     1    17    9.0661E+00  2.7366E-03   9.0634E+00  0.000E+00  0.000E+00  0.000E+00  1.37340E+02  2.290E+00  4.552E+00  9.809E-04  2.702E-03  3.500E-05
   1    4   18     1    18    9.0634E+00  2.7360E-03   9.0606E+00  0.000E+00  0.000E+00  0.000E+00  1.37040E+02  2.290E+00  4.552E+00  9.808E-04  2.701E-03  3.452E-05
   1    4   19     1    19    9.0606E+00  2.7353E-03   9.0579E+00  0.000E+00  0.000E+00  0.000E+00  1.36739E+02  2.289E+00  4.551E+00  9.807E-04  2.701E-03  3.399E-05
   1    4   20     1    20    9.0579E+00  2.7346E-03   9.0552E+00  0.000E+00  0.000E+00  0.000E+00  1.36439E+02  2.289E+00  4.551E+00  9.806E-04  2.701E-03  3.343E-05
   1    4   21     1    21    9.0552E+00  2.7340E-03   9.0524E+00  0.000E+00  0.000E+00  0.000E+00  1.36139E+02  2.289E+00  4.551E+00  9.804E-04  2.704E-03  2.978E-05
   1    4   22     1    22    9.0524E+00  2.7333E-03   9.0497E+00  0.000E+00  0.000E+00  0.000E+00  1.35838E+02  2.288E+00  4.550E+00  9.803E-04  2.704E-03  2.909E-05
   1    4   23     1    23    9.0497E+00  2.7326E-03   9.0470E+00  0.000E+00  0.000E+00  0.000E+00  1.35538E+02  2.288E+00  4.550E+00  9.802E-04  2.704E-03  2.834E-05
   1    4   24     1    24    9.0470E+00  2.7320E-03   9.0442E+00  0.000E+00  0.000E+00  0.000E+00  1.35237E+02  2.287E+00  4.549E+00  9.801E-04  2.704E-03  2.754E-05
   1    4   25     1    25    9.0442E+00  2.7313E-03   9.0415E+00  0.000E+00  0.000E+00  0.000E+00  1.34937E+02  2.287E+00  4.549E+00  9.800E-04  2.705E-03  2.669E-05
   1    4   26     1    26    9.0415E+00  2.7306E-03   9.0388E+00  0.000E+00  0.000E+00  0.000E+00  1.34637E+02  2.287E+00  4.548E+00  9.799E-04  2.705E-03  2.579E-05
   1    4   27     1    27    9.0388E+00  2.7300E-03   9.0361E+00  0.000E+00  0.000E+00  0.000E+00  1.34336E+02  2.286E+00  4.548E+00  9.797E-04  2.705E-03  2.485E-05
   1    4   28     1    28    9.0361E+00  2.7293E-03   9.0333E+00  0.000E+00  0.000E+00  0.000E+00  1.34036E+02  2.286E+00  4.548E+00  9.796E-04  2.705E-03  2.385E-05
   1    4   29     1    29    9.0333E+00  2.7287E-03   9.0306E+00  0.000E+00  0.000E+00  0.000E+00  1.33736E+02  2.286E+00  4.547E+00  9.795E-04  2.706E-03  2.280E-05
   1    4   30     1    30    9.0306E+00  2.7280E-03   9.0279E+00  0.000E+00  0.000E+00  0.000E+00  1.33435E+02  2.285E+00  4.547E+00  9.794E-04  2.706E-03  2.169E-05
   1    4   31     1    31    9.0279E+00  2.7273E-03   9.0251E+00  0.000E+00  0.000E+00  0.000E+00  1.33135E+02  2.285E+00  4.546E+00  9.793E-04  2.707E-03  2.051E-05
   1    4   32     1    32    9.0251E+00  2.7267E-03   9.0224E+00  0.000E+00  0.000E+00  0.000E+00  1.32835E+02  2.285E+00  4.546E+00  9.792E-04  2.707E-03  1.925E-05
   1    4   33     1    33    9.0224E+00  2.7260E-03   9.0197E+00  0.000E+00  0.000E+00  0.000E+00  1.32534E+02  2.284E+00  4.546E+00  9.791E-04  2.708E-03  1.791E-05
   1    4   34     1    34    9.0197E+00  2.7253E-03   9.0170E+00  0.000E+00  0.000E+00  0.000E+00  1.32234E+02  2.284E+00  4.545E+00  9.789E-04  2.709E-03  1.657E-05
   1    4   35     1    35    9.0170E+00  2.7247E-03   9.0142E+00  0.000E+00  0.000E+00  0.000E+00  1.31934E+02  2.284E+00  4.545E+00  9.788E-04  2.710E-03  1.513E-05
   1    4   36     1    36    9.0142E+00  2.7240E-03   9.0115E+00  0.000E+00  0.000E+00  0.000E+00  1.31633E+02  2.283E+00  4.544E+00  9.787E-04  2.710E-03  1.356E-05
   1    4   37     1    37    9.0115E+00  2.7234E-03   9.0088E+00  0.000E+00  0.000E+00  0.000E+00  1.31333E+02  2.283E+00  4.544E+00  9.786E-04  2.712E-03  1.182E-05
   1    4   38     1    38    9.0088E+00  2.7227E-03   9.0061E+00  0.000E+00  0.000E+00  0.000E+00  1.31033E+02  2.283E+00  4.543E+00  9.785E-04  2.719E-03  3.587E-06
   1    4   39     1    39    9.0061E+00  2.7220E-03   9.0033E+00  0.000E+00  0.000E+00  0.000E+00  1.30732E+02  2.282E+00  4.543E+00  9.784E-04  2.744E-03 -2.237E-05
   1    4   40     1    40    9.0033E+00  2.7214E-03   9.0006E+00  0.000E+00  0.000E+00  0.000E+00  1.30432E+02  2.282E+00  4.543E+00  9.783E-04  2.772E-03 -5.026E-05
   1    4   41     1    41    9.0006E+00  2.7207E-03   8.9979E+00  0.000E+00  0.000E+00  0.000E+00  1.30132E+02  2.281E+00  4.542E+00  9.781E-04  2.801E-03 -8.027E-05
   1    4   42     1    42    8.9979E+00  2.7201E-03   8.9952E+00  0.000E+00  0.000E+00  0.000E+00  1.29831E+02  2.281E+00  4.542E+00  9.780E-04  2.823E-03 -1.030E-04
   1    4   43     1    43    8.9952E+00  2.7194E-03   8.9925E+00  0.000E+00  0.000E+00  0.000E+00  1.29531E+02  2.281E+00  4.541E+00  9.779E-04  2.826E-03 -1.069E-04
   1    4   44     1    44    8.9925E+00  2.7187E-03   8.9897E+00  0.000E+00  0.000E+00  0.000E+00  1.29230E+02  2.280E+00  4.541E+00  9.778E-04  2.858E-03 -1.390E-04
   1    4   45     1    45    8.9897E+00  2.7181E-03   8.9870E+00  0.000E+00  0.000E+00  0.000E+00  1.28930E+02  2.280E+00  4.540E+00  9.777E-04  2.896E-03 -1.780E-04
   1    4   46     1    46    8.9870E+00  2.7174E-03   8.9843E+00  0.000E+00  0.000E+00  0.000E+00  1.28630E+02  2.280E+00  4.540E+00  9.776E-04  2.938E-03 -2.211E-04
   1    4   47     1    47    8.9843E+00  2.7168E-03   8.9816E+00  0.000E+00  0.000E+00  0.000E+00  1.28329E+02  2.279E+00  4.540E+00  9.775E-04  2.962E-03 -2.453E-04
   1    4   48     1    48    8.9816E+00  2.7161E-03   8.9789E+00  0.000E+00  0.000E+00  0.000E+00  1.28029E+02  2.279E+00  4.539E+00  9.773E-04  3.011E-03 -2.949E-04
   1    4   49     1    49    8.9789E+00  2.7154E-03   8.9762E+00  0.000E+00  0.000E+00  0.000E+00  1.27729E+02  2.279E+00  4.539E+00  9.772E-04  3.069E-03 -3.535E-04
   1    4   50     1    50    8.9762E+00  2.7148E-03   8.9734E+00  0.000E+00  0.000E+00  0.000E+00  1.27428E+02  2.278E+00  4.538E+00  9.771E-04  2.625E-03  8.935E-05
   1    4   51     1    51    8.9734E+00  2.7141E-03   8.9707E+00  0.000E+00  0.000E+00  0.000E+00  1.27128E+02  2.278E+00  4.538E+00  9.770E-04  2.797E-03 -8.338E-05
   1    4   52     1    52    8.9707E+00  2.7135E-03   8.9680E+00  0.000E+00  0.000E+00  0.000E+00  1.26828E+02  2.278E+00  4.538E+00  9.769E-04  2.834E-03 -1.206E-04
   1    4   53     1    53    8.9680E+00  2.7128E-03   8.9653E+00  0.000E+00  0.000E+00  0.000E+00  1.26527E+02  2.277E+00  4.537E+00  9.768E-04  2.823E-03 -1.104E-04
   1    4   54     1    54    8.9653E+00  2.7121E-03   8.9626E+00  0.000E+00  0.000E+00  0.000E+00  1.26227E+02  2.277E+00  4.537E+00  9.767E-04  2.771E-03 -5.876E-05
   1    4   55     1    55    8.9626E+00  2.7115E-03   8.9599E+00  0.000E+00  0.000E+00  0.000E+00  1.25927E+02  2.277E+00  4.536E+00  9.765E-04  2.604E-03  1.074E-04
   1    4   56     1    56    8.9599E+00  2.7108E-03   8.9572E+00  0.000E+00  0.000E+00  0.000E+00  1.25626E+02  2.276E+00  4.536E+00  9.764E-04  3.075E-03 -3.643E-04
   1    4   57     1    57    8.9572E+00  2.7102E-03   8.9545E+00  0.000E+00  0.000E+00  0.000E+00  1.25326E+02  2.276E+00  4.535E+00  9.763E-04  3.020E-03 -3.101E-04
   1    4   58     1    58    8.9545E+00  2.7095E-03   8.9518E+00  0.000E+00  0.000E+00  0.000E+00  1.25026E+02  2.276E+00  4.535E+00  9.762E-04  2.973E-03 -2.633E-04
   1    4   59     1    59    8.9518E+00  2.7088E-03   8.9490E+00  0.000E+00  0.000E+00  0.000E+00  1.24725E+02  2.275E+00  4.535E+00  9.761E-04  2.942E-03 -2.332E-04
   1    4   60     1    60    8.9490E+00  2.7082E-03   8.9463E+00  0.000E+00  0.000E+00  0.000E+00  1.24425E+02  2.275E+00  4.534E+00  9.760E-04  2.911E-03 -2.028E-04
   1    4   61     1    61    8.9463E+00  2.7075E-03   8.9436E+00  0.000E+00  0.000E+00  0.000E+00  1.24124E+02  2.274E+00  4.534E+00  9.759E-04  2.873E-03 -1.650E-04
   1    4   62     1    62    8.9436E+00  2.7069E-03   8.9409E+00  0.000E+00  0.000E+00  0.000E+00  1.23824E+02  2.274E+00  4.533E+00  9.757E-04  2.837E-03 -1.302E-04
   1    4   63     1    63    8.9409E+00  2.7062E-03   8.9382E+00  0.000E+00  0.000E+00  0.000E+00  1.23524E+02  2.274E+00  4.533E+00  9.756E-04  2.820E-03 -1.143E-04
   1    4   64     1    64    8.9382E+00  2.7055E-03   8.9355E+00  0.000E+00  0.000E+00  0.000E+00  1.23223E+02  2.273E+00  4.533E+00  9.755E-04  2.817E-03 -1.114E-04
   1    4   65     1    65    8.9355E+00  2.7049E-03   8.9328E+00  0.000E+00  0.000E+00  0.000E+00  1.22923E+02  2.273E+00  4.532E+00  9.754E-04  2.786E-03 -8.086E-05
   1    4   66     1    66    8.9328E+00  2.7042E-03   8.9301E+00  0.000E+00  0.000E+00  0.000E+00  1.22623E+02  2.273E+00  4.532E+00  9.753E-04  2.756E-03 -5.212E-05
   1    4   67     1    67    8.9301E+00  2.7036E-03   8.9274E+00  0.000E+00  0.000E+00  0.000E+00  1.22322E+02  2.272E+00  4.531E+00  9.752E-04  2.728E-03 -2.489E-05
   1    4   68     1    68    8.9274E+00  2.7029E-03   8.9247E+00  0.000E+00  0.000E+00  0.000E+00  1.22022E+02  2.272E+00  4.531E+00  9.751E-04  2.710E-03 -6.737E-06
   1    4   69     1    69    8.9247E+00  2.7023E-03   8.9220E+00  0.000E+00  0.000E+00  0.000E+00  1.21722E+02  2.272E+00  4.530E+00  9.749E-04  2.709E-03 -6.494E-06
   1    4   70     1    70    8.9220E+00  2.7016E-03   8.9193E+00  0.000E+00  0.000E+00  0.000E+00  1.21421E+02  2.271E+00  4.530E+00  9.748E-04  2.708E-03 -6.468E-06
   1    4   71     1    71    8.9193E+00  2.7009E-03   8.9166E+00  0.000E+00  0.000E+00  0.000E+00  1.21121E+02  2.271E+00  4.530E+00  9.747E-04  2.708E-03 -6.579E-06
   1    4   72     1    72    8.9166E+00  2.7003E-03   8.9139E+00  0.000E+00  0.000E+00  0.000E+00  1.20821E+02  2.271E+00  4.529E+00  9.746E-04  2.707E-03 -6.787E-06
   1    4   73     1    73    8.9139E+00  2.6996E-03   8.9112E+00  0.000E+00  0.000E+00  0.000E+00  1.20520E+02  2.270E+00  4.529E+00  9.745E-04  2.707E-03 -7.022E-06
   1    4   74     1    74    8.9112E+00  2.6990E-03   8.9085E+00  0.000E+00  0.000E+00  0.000E+00  1.20220E+02  2.270E+00  4.528E+00  9.744E-04  2.706E-03 -7.374E-06
   1    4   75     1    75    8.9085E+00  2.6983E-03   8.9058E+00  0.000E+00  0.000E+00  0.000E+00  1.19920E+02  2.270E+00  4.528E+00  9.743E-04  2.706E-03 -7.827E-06
   1    4   76     1    76    8.9058E+00  2.6977E-03   8.9031E+00  0.000E+00  0.000E+00  0.000E+00  1.19619E+02  2.269E+00  4.527E+00  9.742E-04  2.706E-03 -8.368E-06
   1    4   77     1    77    8.9031E+00  2.6970E-03   8.9004E+00  0.000E+00  0.000E+00  0.000E+00  1.19319E+02  2.269E+00  4.527E+00  9.740E-04  2.706E-03 -8.984E-06
   1    4   78     1    78    8.9004E+00  2.6964E-03   8.8977E+00  0.000E+00  0.000E+00  0.000E+00  1.19019E+02  2.269E+00  4.527E+00  9.739E-04  2.706E-03 -9.670E-06
   1    4   79     1    79    8.8977E+00  2.6957E-03   8.8950E+00  0.000E+00  0.000E+00  0.000E+00  1.18718E+02  2.268E+00  4.526E+00  9.738E-04  2.706E-03 -1.042E-05
   1    4   80     1    80    8.8950E+00  2.6950E-03   8.8923E+00  0.000E+00  0.000E+00  0.000E+00  1.18418E+02  2.268E+00  4.526E+00  9.737E-04  2.706E-03 -1.121E-05
   1    4   81     1    81    8.8923E+00  2.6944E-03   8.8896E+00  0.000E+00  0.000E+00  0.000E+00  1.18118E+02  2.268E+00  4.525E+00  9.736E-04  2.706E-03 -1.204E-05
   1    4   82     1    82    8.8896E+00  2.6937E-03   8.8869E+00  0.000E+00  0.000E+00  0.000E+00  1.17817E+02  2.267E+00  4.525E+00  9.735E-04  2.707E-03 -1.288E-05
   1    4   83     1    83    8.8869E+00  2.6931E-03   8.8842E+00  0.000E+00  0.000E+00  0.000E+00  1.17517E+02  2.267E+00  4.525E+00  9.734E-04  2.707E-03 -1.376E-05
   1    4   84     1    84    8.8842E+00  2.6924E-03   8.8815E+00  0.000E+00  0.000E+00  0.000E+00  1.17216E+02  2.266E+00  4.524E+00  9.732E-04  2.707E-03 -1.464E-05
   1    4   85     1    85    8.8815E+00  2.6918E-03   8.8788E+00  0.000E+00  0.000E+00  0.000E+00  1.16916E+02  2.266E+00  4.524E+00  9.731E-04  2.707E-03 -1.557E-05
   1    4   86     1    86    8.8788E+00  2.6911E-03   8.8762E+00  0.000E+00  0.000E+00  0.000E+00  1.16616E+02  2.266E+00  4.523E+00  9.730E-04  2.708E-03 -1.661E-05
   1    4   87     1    87    8.8762E+00  2.6905E-03   8.8735E+00  0.000E+00  0.000E+00  0.000E+00  1.16315E+02  2.265E+00  4.523E+00  9.729E-04  2.708E-03 -1.796E-05
   1    4   88     1    88    8.8735E+00  2.6898E-03   8.8708E+00  0.000E+00  0.000E+00  0.000E+00  1.16015E+02  2.265E+00  4.522E+00  9.728E-04  2.873E-03 -1.831E-04
   1    4   89     1    89    8.8708E+00  2.6891E-03   8.8681E+00  0.000E+00  0.000E+00  0.000E+00  1.15715E+02  2.265E+00  4.522E+00  9.727E-04  3.090E-03 -4.010E-04
   1    4   90     1    90    8.8681E+00  2.6885E-03   8.8654E+00  0.000E+00  0.000E+00  0.000E+00  1.15414E+02  2.264E+00  4.522E+00  9.726E-04  3.109E-03 -4.210E-04
   1    4   91     1    91    8.8654E+00  2.6878E-03   8.8627E+00  0.000E+00  0.000E+00  0.000E+00  1.15114E+02  2.264E+00  4.521E+00  9.724E-04  3.107E-03 -4.195E-04
   1    4   92     1    92    8.8627E+00  2.6872E-03   8.8600E+00  0.000E+00  0.000E+00  0.000E+00  1.14814E+02  2.264E+00  4.521E+00  9.723E-04  3.106E-03 -4.188E-04
   1    4   93     1    93    8.8600E+00  2.6865E-03   8.8573E+00  0.000E+00  0.000E+00  0.000E+00  1.14513E+02  2.263E+00  4.520E+00  9.722E-04  3.105E-03 -4.183E-04
   1    4   94     1    94    8.8573E+00  2.6859E-03   8.8547E+00  0.000E+00  0.000E+00  0.000E+00  1.14213E+02  2.263E+00  4.520E+00  9.721E-04  3.104E-03 -4.176E-04
   1    4   95     1    95    8.8547E+00  2.6852E-03   8.8520E+00  0.000E+00  0.000E+00  0.000E+00  1.13913E+02  2.263E+00  4.520E+00  9.720E-04  3.102E-03 -4.168E-04
   1    4   96     1    96    8.8520E+00  2.6846E-03   8.8493E+00  0.000E+00  0.000E+00  0.000E+00  1.13612E+02  2.262E+00  4.519E+00  9.719E-04  3.085E-03 -4.000E-04
   1    4   97     1    97    8.8493E+00  2.6839E-03   8.8466E+00  0.000E+00  0.000E+00  0.000E+00  1.13312E+02  2.262E+00  4.519E+00  9.718E-04  3.054E-03 -3.700E-04
   1    4   98     1    98    8.8466E+00  2.6833E-03   8.8439E+00  0.000E+00  0.000E+00  0.000E+00  1.13012E+02  2.262E+00  4.518E+00  9.716E-04  3.024E-03 -3.408E-04
   1    4   99     1    99    8.8439E+00  2.6826E-03   8.8412E+00  0.000E+00  0.000E+00  0.000E+00  1.12711E+02  2.261E+00  4.518E+00  9.715E-04  2.995E-03 -3.127E-04
   1    4  100     1   100    8.8412E+00  2.6820E-03   8.8385E+00  0.000E+00  0.000E+00  0.000E+00  1.12411E+02  2.261E+00  4.517E+00  9.714E-04  2.969E-03 -2.866E-04



1
  VOLUMETRIC BUDGET FOR UNSATURATED ZONE BENEATH STREAMS AT END OF TIME STEP    30 STRESS PERIOD  42
  ------------------------------------------------------------------------------------------------

    CUMULATIVE VOLUMES             L**3    RATES FOR THIS TIME STEP         L**3/T
    ------------------                     ------------------------


          STREAM LOSS =     33228990.0000            STREAM LOSS =            0.2714
    CHANGE IN STORAGE =      1909914.1250      CHANGE IN STORAGE =       -7.9217E-03
       RECHARGE TO GW =     31326464.0000         RECHARGE TO GW =            0.2794

             TOTAL IN =     33228990.0000               TOTAL IN =            0.2794

            TOTAL OUT =     33236378.0000              TOTAL OUT =            0.2794

             IN - OUT =        -7388.0000               IN - OUT =        2.9802E-08

  PERCENT DISCREPANCY =           -0.01      PERCENT DISCREPANCY =             0.00



1
  VOLUMETRIC BUDGET FOR ENTIRE MODEL AT END OF TIME STEP   30, STRESS PERIOD  42
  ------------------------------------------------------------------------------

     CUMULATIVE VOLUMES      L**3       RATES FOR THIS TIME STEP      L**3/T
     ------------------                 ------------------------

           IN:                                      IN:
           ---                                      ---
             STORAGE     =   112224368.0000               STORAGE     =           0.1989
       CONSTANT HEAD     =           0.0000         CONSTANT HEAD     =           0.0000
               WELLS     =           0.0000                 WELLS     =           0.0000
     HEAD DEP BOUNDS     =     2287634.2500       HEAD DEP BOUNDS     =       7.6773E-02
      STREAM LEAKAGE     =    31326130.0000        STREAM LEAKAGE     =           0.2794

                TOTAL IN =   145838128.0000                  TOTAL IN =           0.5551

          OUT:                                     OUT:
          ----                                     ----
             STORAGE     =     3601336.5000               STORAGE     =       3.0017E-02
       CONSTANT HEAD     =           0.0000         CONSTANT HEAD     =           0.0000
               WELLS     =   125850920.0000                 WELLS     =           0.5251
     HEAD DEP BOUNDS     =    16385952.0000       HEAD DEP BOUNDS     =           0.0000
      STREAM LEAKAGE     =           0.0000        STREAM LEAKAGE     =           0.0000

               TOTAL OUT =   145838208.0000                 TOTAL OUT =           0.5551

                IN - OUT =         -80.0000                  IN - OUT =           0.0000

     PERCENT DISCREPANCY =          -0.00         PERCENT DISCREPANCY =           0.00






         TIME SUMMARY AT END OF TIME STEP   30 IN STRESS PERIOD   42
                    SECONDS     MINUTES      HOURS       DAYS        YEARS
                    -----------------------------------------------------------
   TIME STEP LENGTH 2.49961E+05  4166.0      69.434      2.8931     7.92080E-03
 STRESS PERIOD TIME 2.59200E+06  43200.      720.00      30.000     8.21355E-02
         TOTAL TIME 1.08864E+08 1.81440E+06  30240.      1260.0      3.4497    
1
1
                            STRESS PERIOD NO.   43, LENGTH =   2592000.    
                            -----------------------------------------------

                              NUMBER OF TIME STEPS =    30

                               MULTIPLIER FOR DELT =     1.100

                            INITIAL TIME STEP SIZE =   15757.40    

 REUSING NON-PARAMETER WELLS FROM LAST STRESS PERIOD

      1 WELL 

 REUSING NON-PARAMETER GHB CELLS FROM LAST STRESS PERIOD

      7 GHB CELLS



 CLASSIFICATION & COUNT OF STREAM SEGMENTS BASED ON SOURCE OF INFLOW:

                HEADWATER     DIVERSION     RECEIVES TRIBUTARY FLOW
                ---------     ---------     -----------------------
                     1              0               0



                    INPUT DATA FOR EACH STREAM SEGMENT
 ---------------------------------------------------------------------------------------------

 SEGMENT    SEG.     INFLOW   OVERLAND   STREAM    STREAM   ICALC  OUTFLOW  DIVERSION PRIORITY
    NO.    LENGTH     RATE     RUNOFF      ET       PPT.    METH.  TO SEG.  FROM SEG.    NO.

      1  2.000E+04 9.980E+00 0.000E+00 0.000E+00 0.000E+00    2        0        0        0


         STREAMBED PROPERTIES AND STREAM DIMENSIONS

 SEGMENT     BED HYD. COND.      BED THICKNESS     ELEV.-TOP OF BED     WIDTH OF STREAM     DEPTH OF STREAM    STREAM ROUGHNESS
    No.     UPPER     LOWER     UPPER     LOWER     UPPER     LOWER     UPPER     LOWER     UPPER     LOWER   CHANNEL      BANK

     1  3.500E-07 3.500E-07                                                                                 3.000E-02 4.000E-02

  EIGHT POINT CROSS-SECTION DATA FOR SEGMENTS WITH ICALC = 2
    X VALUES X VALUES START FROM LEFT SIDE LOOKING DOWNSTREAM

     SEGMENT NO.        X1        X2        X3        X4        X5        X6        X7        X8
            1      0.000E+00 2.000E+00 4.000E+00 6.000E+00 8.000E+00 1.000E+01 1.200E+01 1.400E+01

    Z VALUES ARE RELATIVE TO STREAMBED ELEVATION

     SEGMENT NO.          Z1        Z2        Z3        Z4        Z5        Z6        Z7        Z8
            1      6.000E+00 4.500E+00 3.500E+00 0.000E+00 3.000E-01 3.500E+00 4.500E+00 6.000E+00



 
 SOLVING FOR HEAD 
                                                   Max.-Head-Change                         Max.-Flux-Residual
  Residual-Control   Outer-Iter.   Inner-Iter.     Column Row Layer    Maximum-Head-Change  Column Row Layer    Maximum-Flux-Residual          L2-NORM 
          0                 1           2            50    3     1      -0.6756580743E-01      50    3    1        -0.2180520916E-01      0.2975280187E-01
          0                 2           2            50    3     1       0.6671614616E-02      50    3    1         0.2183486351E-02      0.2964800656E-02
          0                 3           2            50    3     1      -0.5945901641E-03      50    3    1        -0.1964852102E-03      0.2677153263E-03
          0                 4           1            50    3     1       0.4719527104E-04      50    3    1         0.1573870701E-04      0.2150753684E-04
          0                 5           1            50    3     1      -0.3287691801E-05      50    3    1        -0.1106412665E-05      0.1514482163E-05
          0                 6           1            50    3     1       0.1974165344E-06      50    3    1         0.6704415445E-07      0.9183638746E-07

    ------------------------------------------------
       NWT REQUIRED            6 OUTER ITERATIONS 
       AND A TOTAL OF          9 INNER ITERATIONS.
    ------------------------------------------------

 NO OUTPUT CONTROL FOR STRESS PERIOD   43   TIME STEP    1
 
 WELLS WITH REDUCED PUMPING FOR STRESS PERIOD    43 TIME STEP     1
   LAY   ROW   COL         APPL.Q          ACT.Q        GW-HEAD       CELL-BOT
     1     3    50  -0.580096E+00  -0.313283E+00   0.589936E+01   0.000000E+00
     1     5    55  -0.580096E+00  -0.242257E+00   0.493788E+01   0.000000E+00
 
 
 SOLVING FOR HEAD 
                                                   Max.-Head-Change                         Max.-Flux-Residual
  Residual-Control   Outer-Iter.   Inner-Iter.     Column Row Layer    Maximum-Head-Change  Column Row Layer    Maximum-Flux-Residual          L2-NORM 
          0                 1           2            50    3     1      -0.4703775390E-01      50    3    1        -0.1403804221E-01      0.2105379000E-01
          0                 2           2            50    3     1       0.4597617544E-02      50    3    1         0.1404270907E-02      0.2088581263E-02
          0                 3           2            50    3     1      -0.4091706277E-03      50    3    1        -0.1263765018E-03      0.1893389309E-03
          0                 4           1            50    3     1       0.3246032423E-04      50    3    1         0.1012283113E-04      0.1526930891E-04
          0                 5           1            50    3     1      -0.2261043129E-05      50    3    1        -0.7116222986E-06      0.1077742945E-05
          0                 6           1            50    3     1       0.1357684139E-06      50    3    1         0.4312134716E-07      0.6542659975E-07

    ------------------------------------------------
       NWT REQUIRED            6 OUTER ITERATIONS 
       AND A TOTAL OF          9 INNER ITERATIONS.
    ------------------------------------------------

 NO OUTPUT CONTROL FOR STRESS PERIOD   43   TIME STEP    2
 
 WELLS WITH REDUCED PUMPING FOR STRESS PERIOD    43 TIME STEP     2
   LAY   ROW   COL         APPL.Q          ACT.Q        GW-HEAD       CELL-BOT
     1     3    50  -0.580096E+00  -0.309965E+00   0.585654E+01   0.000000E+00
     1     5    55  -0.580096E+00  -0.239631E+00   0.490394E+01   0.000000E+00
 
 
 SOLVING FOR HEAD 
                                                   Max.-Head-Change                         Max.-Flux-Residual
  Residual-Control   Outer-Iter.   Inner-Iter.     Column Row Layer    Maximum-Head-Change  Column Row Layer    Maximum-Flux-Residual          L2-NORM 
          0                 1           2            50    3     1      -0.3202965550E-01      50    3    1        -0.8802335225E-02      0.1590249559E-01
          0                 2           2            50    3     1       0.3098529989E-02      50    3    1         0.8800829235E-03      0.1564686279E-02
          0                 3           2            50    3     1      -0.2749048553E-03      50    3    1        -0.7920648602E-04      0.1427245696E-03
          0                 4           1            50    3     1       0.2178848303E-04      50    3    1         0.6344456412E-05      0.1158607152E-04
          0                 5           1            50    3     1      -0.1517401726E-05      50    3    1        -0.4460057854E-06      0.8213073763E-06
          0                 6           1            50    3     1       0.9111334016E-07      50    3    1         0.2702598328E-07      0.4997040766E-07

    ------------------------------------------------
       NWT REQUIRED            6 OUTER ITERATIONS 
       AND A TOTAL OF          9 INNER ITERATIONS.
    ------------------------------------------------

 NO OUTPUT CONTROL FOR STRESS PERIOD   43   TIME STEP    3
 
 WELLS WITH REDUCED PUMPING FOR STRESS PERIOD    43 TIME STEP     3
   LAY   ROW   COL         APPL.Q          ACT.Q        GW-HEAD       CELL-BOT
     1     3    50  -0.579925E+00  -0.307611E+00   0.582736E+01   0.000000E+00
     1     5    55  -0.579925E+00  -0.237760E+00   0.488064E+01   0.000000E+00
 
 
 SOLVING FOR HEAD 
                                                   Max.-Head-Change                         Max.-Flux-Residual
  Residual-Control   Outer-Iter.   Inner-Iter.     Column Row Layer    Maximum-Head-Change  Column Row Layer    Maximum-Flux-Residual          L2-NORM 
          0                 1           2            50    3     1      -0.2217655087E-01      50    3    1        -0.5592836240E-02      0.1334250152E-01
          0                 2           2            50    3     1       0.2123986638E-02      50    3    1         0.5590950472E-03      0.1303845552E-02
          0                 3           2            50    3     1      -0.1876204794E-03      50    3    1        -0.5031915181E-04      0.1197207158E-03
          0                 4           1            50    3     1       0.1484862919E-04      50    3    1         0.4030565935E-05      0.9793256752E-05
          0                 5           1            50    3     1      -0.1033723425E-05      50    3    1        -0.2833413671E-06      0.6979936819E-06
          0                 6           1            50    3     1       0.6206751678E-07      50    3    1         0.1716914350E-07      0.4259815861E-07

    ------------------------------------------------
       NWT REQUIRED            6 OUTER ITERATIONS 
       AND A TOTAL OF          9 INNER ITERATIONS.
    ------------------------------------------------

 NO OUTPUT CONTROL FOR STRESS PERIOD   43   TIME STEP    4
 
 WELLS WITH REDUCED PUMPING FOR STRESS PERIOD    43 TIME STEP     4
   LAY   ROW   COL         APPL.Q          ACT.Q        GW-HEAD       CELL-BOT
     1     3    50  -0.580080E+00  -0.306124E+00   0.580713E+01   0.000000E+00
     1     5    55  -0.580080E+00  -0.236576E+00   0.486449E+01   0.000000E+00
 
 
 SOLVING FOR HEAD 
                                                   Max.-Head-Change                         Max.-Flux-Residual
  Residual-Control   Outer-Iter.   Inner-Iter.     Column Row Layer    Maximum-Head-Change  Column Row Layer    Maximum-Flux-Residual          L2-NORM 
          0                 1           2            50    3     1      -0.1500787683E-01      50    3    1        -0.3450616810E-02      0.1205977484E-01
          0                 2           2            50    3     1       0.1419684066E-02      50    3    1         0.3449551128E-03      0.1174263123E-02
          0                 3           2            50    3     1      -0.1248772260E-03      50    3    1        -0.3104649410E-04      0.1084316531E-03
          0                 4           1            50    3     1       0.9866618420E-05      50    3    1         0.2486823756E-05      0.8933254270E-05
          0                 5           1            50    3     1      -0.6865506610E-06      50    3    1        -0.1748179168E-06      0.6402113530E-06

    ------------------------------------------------
       NWT REQUIRED            5 OUTER ITERATIONS 
       AND A TOTAL OF          8 INNER ITERATIONS.
    ------------------------------------------------

 NO OUTPUT CONTROL FOR STRESS PERIOD   43   TIME STEP    5
 
 WELLS WITH REDUCED PUMPING FOR STRESS PERIOD    43 TIME STEP     5
   LAY   ROW   COL         APPL.Q          ACT.Q        GW-HEAD       CELL-BOT
     1     3    50  -0.580040E+00  -0.305040E+00   0.579343E+01   0.000000E+00
     1     5    55  -0.580040E+00  -0.235722E+00   0.485362E+01   0.000000E+00
 
 
 SOLVING FOR HEAD 
                                                   Max.-Head-Change                         Max.-Flux-Residual
  Residual-Control   Outer-Iter.   Inner-Iter.     Column Row Layer    Maximum-Head-Change  Column Row Layer    Maximum-Flux-Residual          L2-NORM 
          0                 1           2            50    3     1      -0.1008572614E-01      50    3    1        -0.2099927974E-02      0.1148045457E-01
          0                 2           2            50    3     1       0.9405632107E-03      50    3    1         0.2099573092E-03      0.1116990410E-02
          0                 3           1            50    3     1      -0.8220060223E-04      50    3    1        -0.1889634943E-04      0.1035571533E-03
          0                 4           1            50    3     1       0.6492302040E-05      50    3    1         0.1513555914E-05      0.8579648254E-05
          0                 5           1            50    3     1      -0.4519334390E-06      50    3    1        -0.1063982758E-06      0.6178524274E-06

    ------------------------------------------------
       NWT REQUIRED            5 OUTER ITERATIONS 
       AND A TOTAL OF          7 INNER ITERATIONS.
    ------------------------------------------------

 NO OUTPUT CONTROL FOR STRESS PERIOD   43   TIME STEP    6
 
 WELLS WITH REDUCED PUMPING FOR STRESS PERIOD    43 TIME STEP     6
   LAY   ROW   COL         APPL.Q          ACT.Q        GW-HEAD       CELL-BOT
     1     3    50  -0.579967E+00  -0.304286E+00   0.578420E+01   0.000000E+00
     1     5    55  -0.579967E+00  -0.235138E+00   0.484644E+01   0.000000E+00
 
 
 SOLVING FOR HEAD 
                                                   Max.-Head-Change                         Max.-Flux-Residual
  Residual-Control   Outer-Iter.   Inner-Iter.     Column Row Layer    Maximum-Head-Change  Column Row Layer    Maximum-Flux-Residual          L2-NORM 
          0                 1           2            50    3     1      -0.6869387535E-02      50    3    1        -0.1290708059E-02      0.1122202984E-01
          0                 2           2            50    3     1       0.6339240722E-03      50    3    1         0.1290723442E-03      0.1092460615E-02
          0                 3           1            50    2     1      -0.5609599664E-04      50    3    1        -0.1161648318E-04      0.1015656955E-03
          0                 4           1            50    2     1       0.4449274605E-05      50    3    1         0.9304405675E-06      0.8452844098E-05
          0                 5           1            50    2     1      -0.3099030692E-06      50    3    1        -0.6540588088E-07      0.6113657149E-06

    ------------------------------------------------
       NWT REQUIRED            5 OUTER ITERATIONS 
       AND A TOTAL OF          7 INNER ITERATIONS.
    ------------------------------------------------

 NO OUTPUT CONTROL FOR STRESS PERIOD   43   TIME STEP    7
 
 WELLS WITH REDUCED PUMPING FOR STRESS PERIOD    43 TIME STEP     7
   LAY   ROW   COL         APPL.Q          ACT.Q        GW-HEAD       CELL-BOT
     1     3    50  -0.579933E+00  -0.303781E+00   0.577792E+01   0.000000E+00
     1     5    55  -0.579933E+00  -0.234759E+00   0.484170E+01   0.000000E+00
 
 
 SOLVING FOR HEAD 
                                                   Max.-Head-Change                         Max.-Flux-Residual
  Residual-Control   Outer-Iter.   Inner-Iter.     Column Row Layer    Maximum-Head-Change  Column Row Layer    Maximum-Flux-Residual          L2-NORM 
          0                 1           2             1    1     1      -0.7148517861E-02      50    3    1        -0.8186220767E-03      0.1109268990E-01
          0                 2           2             1    1     1       0.6804776437E-03      50    3    1         0.8187697781E-04      0.1080921691E-02
          0                 3           1             1    1     1      -0.5886450751E-04      50    3    1        -0.7368787028E-05      0.1007146188E-03
          0                 4           1             1    1     1       0.4570332078E-05       1    4    1        -0.5906830438E-06      0.8415401875E-05
          0                 5           1             1    1     1      -0.3136413621E-06       1    4    1         0.5140716652E-07      0.6111767752E-06

    ------------------------------------------------
       NWT REQUIRED            5 OUTER ITERATIONS 
       AND A TOTAL OF          7 INNER ITERATIONS.
    ------------------------------------------------

 NO OUTPUT CONTROL FOR STRESS PERIOD   43   TIME STEP    8
 
 WELLS WITH REDUCED PUMPING FOR STRESS PERIOD    43 TIME STEP     8
   LAY   ROW   COL         APPL.Q          ACT.Q        GW-HEAD       CELL-BOT
     1     3    50  -0.579948E+00  -0.303447E+00   0.577351E+01   0.000000E+00
     1     5    55  -0.579948E+00  -0.234521E+00   0.483854E+01   0.000000E+00
 
 
 SOLVING FOR HEAD 
                                                   Max.-Head-Change                         Max.-Flux-Residual
  Residual-Control   Outer-Iter.   Inner-Iter.     Column Row Layer    Maximum-Head-Change  Column Row Layer    Maximum-Flux-Residual          L2-NORM 
          0                 1           2             1    1     1      -0.7858806124E-02       1    1    1        -0.7647085261E-03      0.1102455140E-01
          0                 2           2             1    1     1       0.7455956024E-03       1    1    1         0.7647053042E-04      0.1074380328E-02
          0                 3           1             1    1     1      -0.6428125224E-04       1    1    1        -0.6882381449E-05      0.1002815977E-03
          0                 4           1             1    1     1       0.4975281703E-05       1    4    1        -0.6080338828E-06      0.8410465553E-05
          0                 5           1             1    1     1      -0.3405138971E-06       1    4    1         0.5340470111E-07      0.6133373880E-06

    ------------------------------------------------
       NWT REQUIRED            5 OUTER ITERATIONS 
       AND A TOTAL OF          7 INNER ITERATIONS.
    ------------------------------------------------

 NO OUTPUT CONTROL FOR STRESS PERIOD   43   TIME STEP    9
 
 WELLS WITH REDUCED PUMPING FOR STRESS PERIOD    43 TIME STEP     9
   LAY   ROW   COL         APPL.Q          ACT.Q        GW-HEAD       CELL-BOT
     1     3    50  -0.579976E+00  -0.303211E+00   0.577029E+01   0.000000E+00
     1     5    55  -0.579976E+00  -0.234366E+00   0.483638E+01   0.000000E+00
 
 
 SOLVING FOR HEAD 
                                                   Max.-Head-Change                         Max.-Flux-Residual
  Residual-Control   Outer-Iter.   Inner-Iter.     Column Row Layer    Maximum-Head-Change  Column Row Layer    Maximum-Flux-Residual          L2-NORM 
          0                 1           2             1    1     1      -0.8639399823E-02       1    1    1        -0.7644894314E-03      0.1096870491E-01
          0                 2           2             1    1     1       0.8168733652E-03       1    1    1         0.7644856199E-04      0.1069169804E-02
          0                 3           1             1    1     1      -0.7018007755E-04       1    1    1        -0.6880410170E-05      0.9999409488E-04
          0                 4           1             1    1     1       0.5413566802E-05       1    4    1        -0.6247912161E-06      0.8417942878E-05
          0                 5           1             1    1     1      -0.3694065894E-06       1    4    1         0.5536022840E-07      0.6164775466E-06

    ------------------------------------------------
       NWT REQUIRED            5 OUTER ITERATIONS 
       AND A TOTAL OF          7 INNER ITERATIONS.
    ------------------------------------------------

 NO OUTPUT CONTROL FOR STRESS PERIOD   43   TIME STEP   10
 
 WELLS WITH REDUCED PUMPING FOR STRESS PERIOD    43 TIME STEP    10
   LAY   ROW   COL         APPL.Q          ACT.Q        GW-HEAD       CELL-BOT
     1     3    50  -0.579951E+00  -0.303023E+00   0.576803E+01   0.000000E+00
     1     5    55  -0.579951E+00  -0.234250E+00   0.483501E+01   0.000000E+00
 
 
 SOLVING FOR HEAD 
                                                   Max.-Head-Change                         Max.-Flux-Residual
  Residual-Control   Outer-Iter.   Inner-Iter.     Column Row Layer    Maximum-Head-Change  Column Row Layer    Maximum-Flux-Residual          L2-NORM 
          0                 1           2             1    1     1      -0.9497221276E-02       1    1    1        -0.7642490596E-03      0.1093191078E-01
          0                 2           2             1    1     1       0.8949042769E-03       1    1    1         0.7642445705E-04      0.1065685101E-02
          0                 3           1             1    1     1      -0.7660536298E-04       1    1    1        -0.6878247474E-05      0.9984338752E-04
          0                 4           1             1    1     1       0.5887971784E-05       1    4    1        -0.6409198576E-06      0.8435584869E-05
          0                 5           1             1    1     1      -0.4004618240E-06       1    4    1         0.5726633745E-07      0.6203798749E-06

    ------------------------------------------------
       NWT REQUIRED            5 OUTER ITERATIONS 
       AND A TOTAL OF          7 INNER ITERATIONS.
    ------------------------------------------------

 NO OUTPUT CONTROL FOR STRESS PERIOD   43   TIME STEP   11
 
 WELLS WITH REDUCED PUMPING FOR STRESS PERIOD    43 TIME STEP    11
   LAY   ROW   COL         APPL.Q          ACT.Q        GW-HEAD       CELL-BOT
     1     3    50  -0.580019E+00  -0.302922E+00   0.576628E+01   0.000000E+00
     1     5    55  -0.580019E+00  -0.234205E+00   0.483407E+01   0.000000E+00
 
 
 SOLVING FOR HEAD 
                                                   Max.-Head-Change                         Max.-Flux-Residual
  Residual-Control   Outer-Iter.   Inner-Iter.     Column Row Layer    Maximum-Head-Change  Column Row Layer    Maximum-Flux-Residual          L2-NORM 
          0                 1           2             1    1     1      -0.1043986778E-01       1    1    1        -0.7639853298E-03      0.1090271213E-01
          0                 2           2             1    1     1       0.9803414169E-03       1    1    1         0.7639800646E-04      0.1062770996E-02
          0                 3           1             1    1     1      -0.8360612457E-04       1    1    1        -0.6875874607E-05      0.9973529639E-04
          0                 4           1             1    1     1       0.6401562411E-05       1    4    1        -0.6563891439E-06      0.8456177862E-05
          0                 5           1             1    1     1      -0.4338354450E-06       1    4    1         0.5911589440E-07      0.6245343205E-06

    ------------------------------------------------
       NWT REQUIRED            5 OUTER ITERATIONS 
       AND A TOTAL OF          7 INNER ITERATIONS.
    ------------------------------------------------

 NO OUTPUT CONTROL FOR STRESS PERIOD   43   TIME STEP   12
 
 WELLS WITH REDUCED PUMPING FOR STRESS PERIOD    43 TIME STEP    12
   LAY   ROW   COL         APPL.Q          ACT.Q        GW-HEAD       CELL-BOT
     1     3    50  -0.580029E+00  -0.302838E+00   0.576512E+01   0.000000E+00
     1     5    55  -0.580029E+00  -0.234177E+00   0.483364E+01   0.000000E+00
 
 
 SOLVING FOR HEAD 
                                                   Max.-Head-Change                         Max.-Flux-Residual
  Residual-Control   Outer-Iter.   Inner-Iter.     Column Row Layer    Maximum-Head-Change  Column Row Layer    Maximum-Flux-Residual          L2-NORM 
          0                 1           2             1    1     1      -0.1147567447E-01       1    1    1        -0.7636959564E-03      0.1088185828E-01
          0                 2           2             1    1     1       0.1073903349E-02       1    1    1         0.7636898058E-04      0.1060540798E-02
          0                 3           1             1    1     1      -0.9123648131E-04       1    1    1        -0.6873271014E-05      0.9967280456E-04
          0                 4           1             1    1     1       0.6957703270E-05       1    4    1        -0.6711724048E-06      0.8479370483E-05
          0                 5           1             1    1     1      -0.4696966204E-06       1    4    1         0.6090206028E-07      0.6288784763E-06

    ------------------------------------------------
       NWT REQUIRED            5 OUTER ITERATIONS 
       AND A TOTAL OF          7 INNER ITERATIONS.
    ------------------------------------------------

 NO OUTPUT CONTROL FOR STRESS PERIOD   43   TIME STEP   13
 
 WELLS WITH REDUCED PUMPING FOR STRESS PERIOD    43 TIME STEP    13
   LAY   ROW   COL         APPL.Q          ACT.Q        GW-HEAD       CELL-BOT
     1     3    50  -0.580029E+00  -0.302784E+00   0.576443E+01   0.000000E+00
     1     5    55  -0.580029E+00  -0.234176E+00   0.483364E+01   0.000000E+00
 
 
 SOLVING FOR HEAD 
                                                   Max.-Head-Change                         Max.-Flux-Residual
  Residual-Control   Outer-Iter.   Inner-Iter.     Column Row Layer    Maximum-Head-Change  Column Row Layer    Maximum-Flux-Residual          L2-NORM 
          0                 1           2             1    1     1      -0.1261378271E-01       1    1    1        -0.7633784274E-03      0.1085436388E-01
          0                 2           2             1    1     1       0.1176380328E-02       1    1    1         0.7633712693E-04      0.1058009057E-02
          0                 3           1             1    1     1      -0.9955614964E-04       1    1    1        -0.6870414069E-05      0.9959829531E-04
          0                 4           1             1    1     1       0.7560072732E-05       1    4    1        -0.6852466825E-06      0.8501681664E-05
          0                 5           1             1    1     1      -0.5082270277E-06       1    4    1         0.6261810981E-07      0.6331820772E-06

    ------------------------------------------------
       NWT REQUIRED            5 OUTER ITERATIONS 
       AND A TOTAL OF          7 INNER ITERATIONS.
    ------------------------------------------------

 NO OUTPUT CONTROL FOR STRESS PERIOD   43   TIME STEP   14
 
 WELLS WITH REDUCED PUMPING FOR STRESS PERIOD    43 TIME STEP    14
   LAY   ROW   COL         APPL.Q          ACT.Q        GW-HEAD       CELL-BOT
     1     3    50  -0.580012E+00  -0.302753E+00   0.576415E+01   0.000000E+00
     1     5    55  -0.580012E+00  -0.234197E+00   0.483400E+01   0.000000E+00
 
 
 SOLVING FOR HEAD 
                                                   Max.-Head-Change                         Max.-Flux-Residual
  Residual-Control   Outer-Iter.   Inner-Iter.     Column Row Layer    Maximum-Head-Change  Column Row Layer    Maximum-Flux-Residual          L2-NORM 
          0                 1           2             1    1     1      -0.1386421461E-01       1    1    1        -0.7630299800E-03      0.1083287321E-01
          0                 2           2             1    1     1       0.1288641001E-02       1    1    1         0.7630216793E-04      0.1055933621E-02
          0                 3           2             1    1     1      -0.1086364148E-03       1    1    1        -0.6867278900E-05      0.9954795923E-04
          0                 4           1             1    1     1       0.8218463697E-05       1    4    1        -0.6988532348E-06      0.8531374863E-05
          0                 5           1             1    1     1      -0.5499828379E-06       1    4    1         0.6429949906E-07      0.6379893352E-06

    ------------------------------------------------
       NWT REQUIRED            5 OUTER ITERATIONS 
       AND A TOTAL OF          8 INNER ITERATIONS.
    ------------------------------------------------

 NO OUTPUT CONTROL FOR STRESS PERIOD   43   TIME STEP   15
 
 WELLS WITH REDUCED PUMPING FOR STRESS PERIOD    43 TIME STEP    15
   LAY   ROW   COL         APPL.Q          ACT.Q        GW-HEAD       CELL-BOT
     1     3    50  -0.580012E+00  -0.302753E+00   0.576415E+01   0.000000E+00
     1     5    55  -0.580012E+00  -0.234246E+00   0.483463E+01   0.000000E+00
 
 
 SOLVING FOR HEAD 
                                                   Max.-Head-Change                         Max.-Flux-Residual
  Residual-Control   Outer-Iter.   Inner-Iter.     Column Row Layer    Maximum-Head-Change  Column Row Layer    Maximum-Flux-Residual          L2-NORM 
          0                 1           2             1    1     1      -0.1523795403E-01       1    1    1        -0.7626475754E-03      0.1080722968E-01
          0                 2           2             1    1     1       0.1411639655E-02       1    1    1         0.7626379822E-04      0.1053971450E-02
          0                 3           2             1    1     1      -0.1185422049E-03       1    1    1        -0.6863838170E-05      0.9949388158E-04
          0                 4           1             1    1     1       0.8929135285E-05       1    4    1        -0.7115605314E-06      0.8554745421E-05
          0                 5           1             1    1     1      -0.5946549550E-06       2    4    1         0.6589038648E-07      0.6422441879E-06

    ------------------------------------------------
       NWT REQUIRED            5 OUTER ITERATIONS 
       AND A TOTAL OF          8 INNER ITERATIONS.
    ------------------------------------------------

 NO OUTPUT CONTROL FOR STRESS PERIOD   43   TIME STEP   16
 
 WELLS WITH REDUCED PUMPING FOR STRESS PERIOD    43 TIME STEP    16
   LAY   ROW   COL         APPL.Q          ACT.Q        GW-HEAD       CELL-BOT
     1     3    50  -0.580012E+00  -0.302770E+00   0.576436E+01   0.000000E+00
     1     5    55  -0.580012E+00  -0.234313E+00   0.483549E+01   0.000000E+00
 
 
 SOLVING FOR HEAD 
                                                   Max.-Head-Change                         Max.-Flux-Residual
  Residual-Control   Outer-Iter.   Inner-Iter.     Column Row Layer    Maximum-Head-Change  Column Row Layer    Maximum-Flux-Residual          L2-NORM 
          0                 1           2             1    1     1      -0.1674703469E-01       1    1    1        -0.7622278669E-03      0.1077756312E-01
          0                 2           2             1    1     1       0.1546424019E-02       1    1    1         0.7622168149E-04      0.1051169162E-02
          0                 3           2             1    1     1      -0.1293572198E-03       1    1    1        -0.6860061728E-05      0.9937364657E-04
          0                 4           1             1    1     1       0.9700908531E-05       1    4    1        -0.7235472594E-06      0.8572921439E-05
          0                 5           1             1    1     1      -0.6427066915E-06       2    4    1         0.6740967251E-07      0.6460513143E-06

    ------------------------------------------------
       NWT REQUIRED            5 OUTER ITERATIONS 
       AND A TOTAL OF          8 INNER ITERATIONS.
    ------------------------------------------------

 NO OUTPUT CONTROL FOR STRESS PERIOD   43   TIME STEP   17
 
 WELLS WITH REDUCED PUMPING FOR STRESS PERIOD    43 TIME STEP    17
   LAY   ROW   COL         APPL.Q          ACT.Q        GW-HEAD       CELL-BOT
     1     3    50  -0.580025E+00  -0.302792E+00   0.576456E+01   0.000000E+00
     1     5    55  -0.580025E+00  -0.234383E+00   0.483634E+01   0.000000E+00
 
 
 SOLVING FOR HEAD 
                                                   Max.-Head-Change                         Max.-Flux-Residual
  Residual-Control   Outer-Iter.   Inner-Iter.     Column Row Layer    Maximum-Head-Change  Column Row Layer    Maximum-Flux-Residual          L2-NORM 
          0                 1           2             1    1     1      -0.1840463175E-01       1    1    1        -0.7617671733E-03      0.1075757654E-01
          0                 2           2             1    1     1       0.1694143345E-02       1    1    1         0.7617544784E-04      0.1048822825E-02
          0                 3           2             1    1     1      -0.1411698945E-03       1    1    1        -0.6855916425E-05      0.9927765277E-04
          0                 4           1             1    1     1       0.1053959362E-04       1    4    1        -0.7348125273E-06      0.8591488827E-05
          0                 5           1             1    1     1      -0.6943847455E-06       2    4    1         0.6885152715E-07      0.6496834700E-06

    ------------------------------------------------
       NWT REQUIRED            5 OUTER ITERATIONS 
       AND A TOTAL OF          8 INNER ITERATIONS.
    ------------------------------------------------

 NO OUTPUT CONTROL FOR STRESS PERIOD   43   TIME STEP   18
 
 WELLS WITH REDUCED PUMPING FOR STRESS PERIOD    43 TIME STEP    18
   LAY   ROW   COL         APPL.Q          ACT.Q        GW-HEAD       CELL-BOT
     1     3    50  -0.580019E+00  -0.302829E+00   0.576508E+01   0.000000E+00
     1     5    55  -0.580019E+00  -0.234470E+00   0.483750E+01   0.000000E+00
 
 
 SOLVING FOR HEAD 
                                                   Max.-Head-Change                         Max.-Flux-Residual
  Residual-Control   Outer-Iter.   Inner-Iter.     Column Row Layer    Maximum-Head-Change  Column Row Layer    Maximum-Flux-Residual          L2-NORM 
          0                 1           2             1    1     1      -0.2022478330E-01       1    1    1        -0.7612614425E-03      0.1072402122E-01
          0                 2           2             1    1     1       0.1855798520E-02       1    1    1         0.7612468633E-04      0.1047802639E-02
          0                 3           2             1    1     1      -0.1540597491E-03       7    4    1         0.8409086735E-05      0.9984407462E-04
          0                 4           1             1    1     1       0.1145083819E-04       7    4    1        -0.1005416891E-05      0.8694984267E-05
          0                 5           1             1    1     1      -0.7500234135E-06       7    4    1         0.8788201100E-07      0.6598951114E-06

    ------------------------------------------------
       NWT REQUIRED            5 OUTER ITERATIONS 
       AND A TOTAL OF          8 INNER ITERATIONS.
    ------------------------------------------------

 NO OUTPUT CONTROL FOR STRESS PERIOD   43   TIME STEP   19
 
 WELLS WITH REDUCED PUMPING FOR STRESS PERIOD    43 TIME STEP    19
   LAY   ROW   COL         APPL.Q          ACT.Q        GW-HEAD       CELL-BOT
     1     3    50  -0.579987E+00  -0.302881E+00   0.576596E+01   0.000000E+00
     1     5    55  -0.579987E+00  -0.234575E+00   0.483903E+01   0.000000E+00
 
 
 SOLVING FOR HEAD 
                                                   Max.-Head-Change                         Max.-Flux-Residual
  Residual-Control   Outer-Iter.   Inner-Iter.     Column Row Layer    Maximum-Head-Change  Column Row Layer    Maximum-Flux-Residual          L2-NORM 
          0                 1           2             1    1     1      -0.2201176493E-01       1    1    1        -0.7607004944E-03      0.1060906901E-01
          0                 2           2             1    1     1       0.1994442690E-02       1    1    1         0.7606634843E-04      0.1058843752E-02
          0                 3           2             1    1     1      -0.1639665349E-03       6    4    1         0.9860768163E-05      0.1027366658E-03
          0                 4           1             1    1     1       0.1210608755E-04       6    4    1        -0.1078166061E-05      0.9026463939E-05
          0                 5           1             1    1     1      -0.7891136844E-06       2    4    1         0.9184837779E-07      0.6858581562E-06

    ------------------------------------------------
       NWT REQUIRED            5 OUTER ITERATIONS 
       AND A TOTAL OF          8 INNER ITERATIONS.
    ------------------------------------------------

 NO OUTPUT CONTROL FOR STRESS PERIOD   43   TIME STEP   20
 
 WELLS WITH REDUCED PUMPING FOR STRESS PERIOD    43 TIME STEP    20
   LAY   ROW   COL         APPL.Q          ACT.Q        GW-HEAD       CELL-BOT
     1     3    50  -0.579983E+00  -0.302956E+00   0.576696E+01   0.000000E+00
     1     5    55  -0.579983E+00  -0.234705E+00   0.484074E+01   0.000000E+00
 
 
 SOLVING FOR HEAD 
                                                   Max.-Head-Change                         Max.-Flux-Residual
  Residual-Control   Outer-Iter.   Inner-Iter.     Column Row Layer    Maximum-Head-Change  Column Row Layer    Maximum-Flux-Residual          L2-NORM 
          0                 1           2             1    1     1      -0.2323349581E-01       1    1    1        -0.7534681181E-03      0.1043338990E-01
          0                 2           2             1    1     1       0.2076718973E-02       1    1    1         0.7533608854E-04      0.1028276551E-02
          0                 3           2             1    1     1      -0.1688014874E-03       1    4    1         0.9404811816E-05      0.9983200876E-04
          0                 4           1            18    7     1       0.1238701732E-04       1    4    1        -0.1064310478E-05      0.8829156200E-05
          0                 5           1            18    7     1      -0.8011546411E-06       1    4    1         0.9108005372E-07      0.6747096868E-06

    ------------------------------------------------
       NWT REQUIRED            5 OUTER ITERATIONS 
       AND A TOTAL OF          8 INNER ITERATIONS.
    ------------------------------------------------

 NO OUTPUT CONTROL FOR STRESS PERIOD   43   TIME STEP   21
 
 WELLS WITH REDUCED PUMPING FOR STRESS PERIOD    43 TIME STEP    21
   LAY   ROW   COL         APPL.Q          ACT.Q        GW-HEAD       CELL-BOT
     1     3    50  -0.580000E+00  -0.303050E+00   0.576805E+01   0.000000E+00
     1     5    55  -0.580000E+00  -0.234854E+00   0.484259E+01   0.000000E+00
 
 
 SOLVING FOR HEAD 
                                                   Max.-Head-Change                         Max.-Flux-Residual
  Residual-Control   Outer-Iter.   Inner-Iter.     Column Row Layer    Maximum-Head-Change  Column Row Layer    Maximum-Flux-Residual          L2-NORM 
          0                 1           2             3    1     1      -0.2517048216E-01       1    1    1        -0.7238227856E-03      0.1033103881E-01
          0                 2           2             3    1     1       0.2230366511E-02       1    1    1         0.7237652582E-04      0.1020893575E-02
          0                 3           2             3    1     1      -0.1795051421E-03      17    4    1         0.8841063995E-05      0.9961162173E-04
          0                 4           1            19    7     1       0.1302960043E-04      17    4    1        -0.1005571198E-05      0.8856385434E-05
          0                 5           1            19    7     1      -0.8370243171E-06       4    4    1         0.8651640471E-07      0.6787062767E-06

    ------------------------------------------------
       NWT REQUIRED            5 OUTER ITERATIONS 
       AND A TOTAL OF          8 INNER ITERATIONS.
    ------------------------------------------------

 NO OUTPUT CONTROL FOR STRESS PERIOD   43   TIME STEP   22
 
 WELLS WITH REDUCED PUMPING FOR STRESS PERIOD    43 TIME STEP    22
   LAY   ROW   COL         APPL.Q          ACT.Q        GW-HEAD       CELL-BOT
     1     3    50  -0.579996E+00  -0.303129E+00   0.576910E+01   0.000000E+00
     1     5    55  -0.579996E+00  -0.234997E+00   0.484446E+01   0.000000E+00
 
 
 SOLVING FOR HEAD 
                                                   Max.-Head-Change                         Max.-Flux-Residual
  Residual-Control   Outer-Iter.   Inner-Iter.     Column Row Layer    Maximum-Head-Change  Column Row Layer    Maximum-Flux-Residual          L2-NORM 
          0                 1           2             3    1     1      -0.2731644468E-01       3    1    1        -0.7133887230E-03      0.1020463394E-01
          0                 2           2             3    1     1       0.2413308472E-02       3    1    1         0.7133314740E-04      0.1014493769E-02
          0                 3           2             3    1     1      -0.1934048085E-03      18    4    1         0.8919164031E-05      0.9951744590E-04
          0                 4           1             3    1     1       0.1392515844E-04      18    4    1        -0.1003186624E-05      0.8884894679E-05
          0                 5           1             1    1     1      -0.8796272477E-06       2    4    1         0.8794455297E-07      0.6817029882E-06

    ------------------------------------------------
       NWT REQUIRED            5 OUTER ITERATIONS 
       AND A TOTAL OF          8 INNER ITERATIONS.
    ------------------------------------------------

 NO OUTPUT CONTROL FOR STRESS PERIOD   43   TIME STEP   23
 
 WELLS WITH REDUCED PUMPING FOR STRESS PERIOD    43 TIME STEP    23
   LAY   ROW   COL         APPL.Q          ACT.Q        GW-HEAD       CELL-BOT
     1     3    50  -0.580010E+00  -0.303224E+00   0.577023E+01   0.000000E+00
     1     5    55  -0.580010E+00  -0.235156E+00   0.484645E+01   0.000000E+00
 
 
 SOLVING FOR HEAD 
                                                   Max.-Head-Change                         Max.-Flux-Residual
  Residual-Control   Outer-Iter.   Inner-Iter.     Column Row Layer    Maximum-Head-Change  Column Row Layer    Maximum-Flux-Residual          L2-NORM 
          0                 1           2             3    1     1      -0.2990543781E-01       3    1    1        -0.7039949184E-03      0.1007505078E-01
          0                 2           2             3    1     1       0.2629734725E-02       3    1    1         0.7039557591E-04      0.9964827773E-03
          0                 3           2             3    1     1      -0.2094778149E-03      20    4    1         0.8823344004E-05      0.9783761169E-04
          0                 4           1             3    1     1       0.1496803455E-04      20    4    1        -0.9954146556E-06      0.8772859950E-05
          0                 5           1             1    1     1      -0.9333588585E-06       2    4    1         0.8748088121E-07      0.6744926584E-06

    ------------------------------------------------
       NWT REQUIRED            5 OUTER ITERATIONS 
       AND A TOTAL OF          8 INNER ITERATIONS.
    ------------------------------------------------

 NO OUTPUT CONTROL FOR STRESS PERIOD   43   TIME STEP   24
 
 WELLS WITH REDUCED PUMPING FOR STRESS PERIOD    43 TIME STEP    24
   LAY   ROW   COL         APPL.Q          ACT.Q        GW-HEAD       CELL-BOT
     1     3    50  -0.579997E+00  -0.303331E+00   0.577168E+01   0.000000E+00
     1     5    55  -0.579997E+00  -0.235333E+00   0.484881E+01   0.000000E+00
 
 
 SOLVING FOR HEAD 
                                                   Max.-Head-Change                         Max.-Flux-Residual
  Residual-Control   Outer-Iter.   Inner-Iter.     Column Row Layer    Maximum-Head-Change  Column Row Layer    Maximum-Flux-Residual          L2-NORM 
          0                 1           2             2    1     1      -0.3283173041E-01       3    1    1        -0.7009153005E-03      0.9989639517E-02
          0                 2           2             2    1     1       0.2877213681E-02       3    1    1         0.7008793023E-04      0.9864385265E-03
          0                 3           2             3    1     1      -0.2281202551E-03      21    4    1         0.8177959252E-05      0.9701249061E-04
          0                 4           1             3    1     1       0.1619647067E-04       1    4    1        -0.9779674812E-06      0.8731655609E-05
          0                 5           1             1    1     1      -0.9968678261E-06       2    4    1         0.8873239921E-07      0.6716579495E-06

    ------------------------------------------------
       NWT REQUIRED            5 OUTER ITERATIONS 
       AND A TOTAL OF          8 INNER ITERATIONS.
    ------------------------------------------------

 NO OUTPUT CONTROL FOR STRESS PERIOD   43   TIME STEP   25
 
 WELLS WITH REDUCED PUMPING FOR STRESS PERIOD    43 TIME STEP    25
   LAY   ROW   COL         APPL.Q          ACT.Q        GW-HEAD       CELL-BOT
     1     3    50  -0.580006E+00  -0.303456E+00   0.577325E+01   0.000000E+00
     1     5    55  -0.580006E+00  -0.235534E+00   0.485137E+01   0.000000E+00
 
 
 SOLVING FOR HEAD 
                                                   Max.-Head-Change                         Max.-Flux-Residual
  Residual-Control   Outer-Iter.   Inner-Iter.     Column Row Layer    Maximum-Head-Change  Column Row Layer    Maximum-Flux-Residual          L2-NORM 
          0                 1           2             1    1     1      -0.3581707806E-01       2    7    1        -0.6997362649E-03      0.9888761212E-02
          0                 2           2             1    1     1       0.3127375969E-02       2    1    1         0.6996579620E-04      0.9811000755E-03
          0                 3           2             1    1     1      -0.2467912840E-03      23    4    1         0.8324105599E-05      0.9699632453E-04
          0                 4           1             1    1     1       0.1741836275E-04       3    4    1        -0.1010736142E-05      0.8767317499E-05
          0                 5           1             1    1     1      -0.1058049831E-05       2    4    1         0.9129059464E-07      0.6738996046E-06
          0                 6           1             1    1     1       0.5689242207E-07       2    4    1        -0.6434124344E-08      0.4376035379E-07

    ------------------------------------------------
       NWT REQUIRED            6 OUTER ITERATIONS 
       AND A TOTAL OF          9 INNER ITERATIONS.
    ------------------------------------------------

 NO OUTPUT CONTROL FOR STRESS PERIOD   43   TIME STEP   26
 
 WELLS WITH REDUCED PUMPING FOR STRESS PERIOD    43 TIME STEP    26
   LAY   ROW   COL         APPL.Q          ACT.Q        GW-HEAD       CELL-BOT
     1     3    50  -0.580003E+00  -0.303587E+00   0.577495E+01   0.000000E+00
     1     5    55  -0.580003E+00  -0.235749E+00   0.485417E+01   0.000000E+00
 
 
 SOLVING FOR HEAD 
                                                   Max.-Head-Change                         Max.-Flux-Residual
  Residual-Control   Outer-Iter.   Inner-Iter.     Column Row Layer    Maximum-Head-Change  Column Row Layer    Maximum-Flux-Residual          L2-NORM 
          0                 1           3             1    7     1      -0.3870927826E-01       1    7    1        -0.6941696650E-03      0.9734553624E-02
          0                 2           2             1    1     1       0.3373180586E-02       1    7    1         0.6940730096E-04      0.9733364719E-03
          0                 3           2             1    1     1      -0.2653257151E-03      24    4    1         0.8676371115E-05      0.9667675051E-04
          0                 4           1             1    1     1       0.1863061963E-04       1    4    1        -0.1025943380E-05      0.8762383989E-05
          0                 5           1             1    1     1      -0.1113846906E-05       2    4    1         0.9225705000E-07      0.6716807920E-06
          0                 6           1             1    1     1       0.5922349010E-07       2    4    1        -0.6487812954E-08      0.4354762224E-07

    ------------------------------------------------
       NWT REQUIRED            6 OUTER ITERATIONS 
       AND A TOTAL OF         10 INNER ITERATIONS.
    ------------------------------------------------

 NO OUTPUT CONTROL FOR STRESS PERIOD   43   TIME STEP   27
 
 WELLS WITH REDUCED PUMPING FOR STRESS PERIOD    43 TIME STEP    27
   LAY   ROW   COL         APPL.Q          ACT.Q        GW-HEAD       CELL-BOT
     1     3    50  -0.580001E+00  -0.303723E+00   0.577672E+01   0.000000E+00
     1     5    55  -0.580001E+00  -0.235977E+00   0.485714E+01   0.000000E+00
 
 
 SOLVING FOR HEAD 
                                                   Max.-Head-Change                         Max.-Flux-Residual
  Residual-Control   Outer-Iter.   Inner-Iter.     Column Row Layer    Maximum-Head-Change  Column Row Layer    Maximum-Flux-Residual          L2-NORM 
          0                 1           3             1    1     1      -0.4237719889E-01       1    7    1        -0.6821266062E-03      0.9589187586E-02
          0                 2           2             1    1     1       0.3677594986E-02       1    7    1         0.6820691800E-04      0.9512578141E-03
          0                 3           2             1    1     1      -0.2876463477E-03      26    4    1         0.8226298885E-05      0.9443791706E-04
          0                 4           1             1    1     1       0.2003635768E-04       1    4    1        -0.9897345876E-06      0.8592787867E-05
          0                 5           1             1    1     1      -0.1170095190E-05       2    4    1         0.9048742555E-07      0.6573720970E-06
          0                 6           1             1    1     1       0.6118556248E-07       2    4    1        -0.6394873964E-08      0.4260026514E-07

    ------------------------------------------------
       NWT REQUIRED            6 OUTER ITERATIONS 
       AND A TOTAL OF         10 INNER ITERATIONS.
    ------------------------------------------------

 NO OUTPUT CONTROL FOR STRESS PERIOD   43   TIME STEP   28
 
 WELLS WITH REDUCED PUMPING FOR STRESS PERIOD    43 TIME STEP    28
   LAY   ROW   COL         APPL.Q          ACT.Q        GW-HEAD       CELL-BOT
     1     3    50  -0.579990E+00  -0.303861E+00   0.577857E+01   0.000000E+00
     1     5    55  -0.579990E+00  -0.236216E+00   0.486029E+01   0.000000E+00
 
 
 SOLVING FOR HEAD 
                                                   Max.-Head-Change                         Max.-Flux-Residual
  Residual-Control   Outer-Iter.   Inner-Iter.     Column Row Layer    Maximum-Head-Change  Column Row Layer    Maximum-Flux-Residual          L2-NORM 
          0                 1           3             1    1     1      -0.4651413505E-01       1    7    1        -0.6790959047E-03      0.9488220556E-02
          0                 2           2             1    1     1       0.4026777568E-02       1    7    1         0.6790425238E-04      0.9393703946E-03
          0                 3           2             6    7     1      -0.3137757365E-03      27    4    1         0.7918496868E-05      0.9337168801E-04
          0                 4           1             6    7     1       0.2172365476E-04       1    4    1        -0.9953375617E-06      0.8523338414E-05
          0                 5           1             1    1     1      -0.1235375778E-05       2    4    1         0.9131383649E-07      0.6489598787E-06
          0                 6           1             1    1     1       0.6354591897E-07       2    4    1        -0.6442633094E-08      0.4196087823E-07

    ------------------------------------------------
       NWT REQUIRED            6 OUTER ITERATIONS 
       AND A TOTAL OF         10 INNER ITERATIONS.
    ------------------------------------------------

 NO OUTPUT CONTROL FOR STRESS PERIOD   43   TIME STEP   29
 
 WELLS WITH REDUCED PUMPING FOR STRESS PERIOD    43 TIME STEP    29
   LAY   ROW   COL         APPL.Q          ACT.Q        GW-HEAD       CELL-BOT
     1     3    50  -0.580006E+00  -0.304021E+00   0.578053E+01   0.000000E+00
     1     5    55  -0.580006E+00  -0.236485E+00   0.486369E+01   0.000000E+00
 
 
 SOLVING FOR HEAD 
                                                   Max.-Head-Change                         Max.-Flux-Residual
  Residual-Control   Outer-Iter.   Inner-Iter.     Column Row Layer    Maximum-Head-Change  Column Row Layer    Maximum-Flux-Residual          L2-NORM 
          0                 1           3             4    4     1      -0.5232702440E-01       1    7    1        -0.6777558534E-03      0.9490852271E-02
          0                 2           2             3    1     1       0.4511331408E-02       1    7    1         0.6777827088E-04      0.9262784408E-03
          0                 3           2             3    1     1      -0.3512351845E-03      28    4    1         0.7566351165E-05      0.9144087270E-04
          0                 4           1             3    1     1       0.2418808306E-04       1    4    1        -0.9387196940E-06      0.8357452053E-05
          0                 5           1             1    1     1      -0.1329189712E-05       2    4    1         0.8783602468E-07      0.6316848503E-06
          0                 6           1             1    1     1       0.6687451195E-07       2    4    1        -0.6255685747E-08      0.4073832510E-07

    ------------------------------------------------
       NWT REQUIRED            6 OUTER ITERATIONS 
       AND A TOTAL OF         10 INNER ITERATIONS.
    ------------------------------------------------

 NO OUTPUT CONTROL FOR STRESS PERIOD   43   TIME STEP   30
 
 WELLS WITH REDUCED PUMPING FOR STRESS PERIOD    43 TIME STEP    30
   LAY   ROW   COL         APPL.Q          ACT.Q        GW-HEAD       CELL-BOT
     1     3    50  -0.580134E+00  -0.304227E+00   0.578231E+01   0.000000E+00
     1     5    55  -0.580134E+00  -0.236807E+00   0.486718E+01   0.000000E+00
 



 STREAM LISTING     PERIOD     43   STEP       30

 LAYER ROW COL. STREAM  RCH.   FLOW INTO    STREAM     FLOW OUT OF   OVRLND.    DIRECT     STREAM      STREAM      STREAM     STREAM  STREAMBED   FLOW TO   CHNG. UNSAT. 
                SEG.NO.  NO.   STRM. RCH.    LOSS       STRM. RCH.   RUNOFF     PRECIP       ET         HEAD        DEPTH      WIDTH  CONDCTNC.   WAT. TAB.

   1    4    1     1     1    9.9800E+00  2.9569E-03   9.9770E+00  0.000E+00  0.000E+00  0.000E+00  1.42254E+02  2.404E+00  4.689E+00  1.018E-03  3.108E-03 -1.515E-04
   1    4    2     1     2    9.9770E+00  2.9562E-03   9.9741E+00  0.000E+00  0.000E+00  0.000E+00  1.41954E+02  2.404E+00  4.688E+00  1.018E-03  3.097E-03 -1.407E-04
   1    4    3     1     3    9.9741E+00  2.9555E-03   9.9711E+00  0.000E+00  0.000E+00  0.000E+00  1.41653E+02  2.403E+00  4.688E+00  1.018E-03  3.087E-03 -1.316E-04
   1    4    4     1     4    9.9711E+00  2.9548E-03   9.9682E+00  0.000E+00  0.000E+00  0.000E+00  1.41353E+02  2.403E+00  4.688E+00  1.018E-03  3.079E-03 -1.243E-04
   1    4    5     1     5    9.9682E+00  2.9541E-03   9.9652E+00  0.000E+00  0.000E+00  0.000E+00  1.41053E+02  2.403E+00  4.687E+00  1.018E-03  3.073E-03 -1.188E-04
   1    4    6     1     6    9.9652E+00  2.9534E-03   9.9623E+00  0.000E+00  0.000E+00  0.000E+00  1.40752E+02  2.402E+00  4.687E+00  1.018E-03  3.069E-03 -1.156E-04
   1    4    7     1     7    9.9623E+00  2.9527E-03   9.9593E+00  0.000E+00  0.000E+00  0.000E+00  1.40452E+02  2.402E+00  4.686E+00  1.017E-03  3.068E-03 -1.156E-04
   1    4    8     1     8    9.9593E+00  2.9520E-03   9.9564E+00  0.000E+00  0.000E+00  0.000E+00  1.40152E+02  2.402E+00  4.686E+00  1.017E-03  3.068E-03 -1.157E-04
   1    4    9     1     9    9.9564E+00  2.9513E-03   9.9534E+00  0.000E+00  0.000E+00  0.000E+00  1.39851E+02  2.401E+00  4.685E+00  1.017E-03  3.067E-03 -1.158E-04
   1    4   10     1    10    9.9534E+00  2.9506E-03   9.9505E+00  0.000E+00  0.000E+00  0.000E+00  1.39551E+02  2.401E+00  4.685E+00  1.017E-03  3.069E-03 -1.187E-04
   1    4   11     1    11    9.9505E+00  2.9499E-03   9.9475E+00  0.000E+00  0.000E+00  0.000E+00  1.39251E+02  2.401E+00  4.685E+00  1.017E-03  3.074E-03 -1.243E-04
   1    4   12     1    12    9.9475E+00  2.9492E-03   9.9446E+00  0.000E+00  0.000E+00  0.000E+00  1.38950E+02  2.400E+00  4.684E+00  1.017E-03  3.081E-03 -1.318E-04
   1    4   13     1    13    9.9446E+00  2.9485E-03   9.9416E+00  0.000E+00  0.000E+00  0.000E+00  1.38650E+02  2.400E+00  4.684E+00  1.017E-03  3.090E-03 -1.411E-04
   1    4   14     1    14    9.9416E+00  2.9478E-03   9.9387E+00  0.000E+00  0.000E+00  0.000E+00  1.38349E+02  2.399E+00  4.683E+00  1.017E-03  3.100E-03 -1.524E-04
   1    4   15     1    15    9.9387E+00  2.9470E-03   9.9357E+00  0.000E+00  0.000E+00  0.000E+00  1.38049E+02  2.399E+00  4.683E+00  1.017E-03  3.113E-03 -1.657E-04
   1    4   16     1    16    9.9357E+00  2.9463E-03   9.9328E+00  0.000E+00  0.000E+00  0.000E+00  1.37749E+02  2.399E+00  4.682E+00  1.016E-03  3.127E-03 -1.809E-04
   1    4   17     1    17    9.9328E+00  2.9456E-03   9.9298E+00  0.000E+00  0.000E+00  0.000E+00  1.37448E+02  2.398E+00  4.682E+00  1.016E-03  3.144E-03 -1.983E-04
   1    4   18     1    18    9.9298E+00  2.9449E-03   9.9269E+00  0.000E+00  0.000E+00  0.000E+00  1.37148E+02  2.398E+00  4.682E+00  1.016E-03  3.163E-03 -2.177E-04
   1    4   19     1    19    9.9269E+00  2.9442E-03   9.9239E+00  0.000E+00  0.000E+00  0.000E+00  1.36848E+02  2.398E+00  4.681E+00  1.016E-03  3.183E-03 -2.392E-04
   1    4   20     1    20    9.9239E+00  2.9435E-03   9.9210E+00  0.000E+00  0.000E+00  0.000E+00  1.36547E+02  2.397E+00  4.681E+00  1.016E-03  3.187E-03 -2.434E-04
   1    4   21     1    21    9.9210E+00  2.9428E-03   9.9181E+00  0.000E+00  0.000E+00  0.000E+00  1.36247E+02  2.397E+00  4.680E+00  1.016E-03  3.187E-03 -2.440E-04
   1    4   22     1    22    9.9181E+00  2.9421E-03   9.9151E+00  0.000E+00  0.000E+00  0.000E+00  1.35947E+02  2.397E+00  4.680E+00  1.016E-03  3.187E-03 -2.447E-04
   1    4   23     1    23    9.9151E+00  2.9414E-03   9.9122E+00  0.000E+00  0.000E+00  0.000E+00  1.35646E+02  2.396E+00  4.679E+00  1.016E-03  3.187E-03 -2.454E-04
   1    4   24     1    24    9.9122E+00  2.9407E-03   9.9092E+00  0.000E+00  0.000E+00  0.000E+00  1.35346E+02  2.396E+00  4.679E+00  1.015E-03  3.187E-03 -2.461E-04
   1    4   25     1    25    9.9092E+00  2.9400E-03   9.9063E+00  0.000E+00  0.000E+00  0.000E+00  1.35046E+02  2.396E+00  4.679E+00  1.015E-03  3.187E-03 -2.469E-04
   1    4   26     1    26    9.9063E+00  2.9393E-03   9.9033E+00  0.000E+00  0.000E+00  0.000E+00  1.34745E+02  2.395E+00  4.678E+00  1.015E-03  3.187E-03 -2.478E-04
   1    4   27     1    27    9.9033E+00  2.9386E-03   9.9004E+00  0.000E+00  0.000E+00  0.000E+00  1.34445E+02  2.395E+00  4.678E+00  1.015E-03  3.188E-03 -2.490E-04
   1    4   28     1    28    9.9004E+00  2.9379E-03   9.8975E+00  0.000E+00  0.000E+00  0.000E+00  1.34144E+02  2.394E+00  4.677E+00  1.015E-03  3.189E-03 -2.507E-04
   1    4   29     1    29    9.8975E+00  2.9372E-03   9.8945E+00  0.000E+00  0.000E+00  0.000E+00  1.33844E+02  2.394E+00  4.677E+00  1.015E-03  3.044E-03 -1.071E-04
   1    4   30     1    30    9.8945E+00  2.9365E-03   9.8916E+00  0.000E+00  0.000E+00  0.000E+00  1.33544E+02  2.394E+00  4.676E+00  1.015E-03  2.919E-03  1.744E-05
   1    4   31     1    31    9.8916E+00  2.9358E-03   9.8887E+00  0.000E+00  0.000E+00  0.000E+00  1.33243E+02  2.393E+00  4.676E+00  1.015E-03  2.919E-03  1.679E-05
   1    4   32     1    32    9.8887E+00  2.9351E-03   9.8857E+00  0.000E+00  0.000E+00  0.000E+00  1.32943E+02  2.393E+00  4.676E+00  1.015E-03  2.919E-03  1.578E-05
   1    4   33     1    33    9.8857E+00  2.9344E-03   9.8828E+00  0.000E+00  0.000E+00  0.000E+00  1.32643E+02  2.393E+00  4.675E+00  1.014E-03  2.920E-03  1.451E-05
   1    4   34     1    34    9.8828E+00  2.9336E-03   9.8799E+00  0.000E+00  0.000E+00  0.000E+00  1.32342E+02  2.392E+00  4.675E+00  1.014E-03  2.921E-03  1.300E-05
   1    4   35     1    35    9.8799E+00  2.9329E-03   9.8769E+00  0.000E+00  0.000E+00  0.000E+00  1.32042E+02  2.392E+00  4.674E+00  1.014E-03  2.922E-03  1.126E-05
   1    4   36     1    36    9.8769E+00  2.9322E-03   9.8740E+00  0.000E+00  0.000E+00  0.000E+00  1.31742E+02  2.392E+00  4.674E+00  1.014E-03  2.923E-03  9.367E-06
   1    4   37     1    37    9.8740E+00  2.9315E-03   9.8711E+00  0.000E+00  0.000E+00  0.000E+00  1.31441E+02  2.391E+00  4.673E+00  1.014E-03  2.924E-03  7.319E-06
   1    4   38     1    38    9.8711E+00  2.9308E-03   9.8681E+00  0.000E+00  0.000E+00  0.000E+00  1.31141E+02  2.391E+00  4.673E+00  1.014E-03  2.926E-03  5.175E-06
   1    4   39     1    39    9.8681E+00  2.9301E-03   9.8652E+00  0.000E+00  0.000E+00  0.000E+00  1.30840E+02  2.390E+00  4.673E+00  1.014E-03  2.904E-03  2.657E-05
   1    4   40     1    40    9.8652E+00  2.9294E-03   9.8623E+00  0.000E+00  0.000E+00  0.000E+00  1.30540E+02  2.390E+00  4.672E+00  1.014E-03  2.876E-03  5.369E-05
   1    4   41     1    41    9.8623E+00  2.9287E-03   9.8593E+00  0.000E+00  0.000E+00  0.000E+00  1.30240E+02  2.390E+00  4.672E+00  1.013E-03  2.846E-03  8.282E-05
   1    4   42     1    42    9.8593E+00  2.9280E-03   9.8564E+00  0.000E+00  0.000E+00  0.000E+00  1.29939E+02  2.389E+00  4.671E+00  1.013E-03  2.814E-03  1.142E-04
   1    4   43     1    43    9.8564E+00  2.9273E-03   9.8535E+00  0.000E+00  0.000E+00  0.000E+00  1.29639E+02  2.389E+00  4.671E+00  1.013E-03  2.813E-03  1.144E-04
   1    4   44     1    44    9.8535E+00  2.9266E-03   9.8506E+00  0.000E+00  0.000E+00  0.000E+00  1.29339E+02  2.389E+00  4.670E+00  1.013E-03  2.815E-03  1.116E-04
   1    4   45     1    45    9.8506E+00  2.9259E-03   9.8476E+00  0.000E+00  0.000E+00  0.000E+00  1.29038E+02  2.388E+00  4.670E+00  1.013E-03  2.817E-03  1.088E-04
   1    4   46     1    46    9.8476E+00  2.9252E-03   9.8447E+00  0.000E+00  0.000E+00  0.000E+00  1.28738E+02  2.388E+00  4.670E+00  1.013E-03  2.819E-03  1.060E-04
   1    4   47     1    47    9.8447E+00  2.9245E-03   9.8418E+00  0.000E+00  0.000E+00  0.000E+00  1.28438E+02  2.388E+00  4.669E+00  1.013E-03  2.821E-03  1.032E-04
   1    4   48     1    48    9.8418E+00  2.9238E-03   9.8389E+00  0.000E+00  0.000E+00  0.000E+00  1.28137E+02  2.387E+00  4.669E+00  1.013E-03  2.823E-03  1.004E-04
   1    4   49     1    49    9.8389E+00  2.9231E-03   9.8359E+00  0.000E+00  0.000E+00  0.000E+00  1.27837E+02  2.387E+00  4.668E+00  1.013E-03  2.826E-03  9.733E-05
   1    4   50     1    50    9.8359E+00  2.9224E-03   9.8330E+00  0.000E+00  0.000E+00  0.000E+00  1.27537E+02  2.387E+00  4.668E+00  1.012E-03  2.829E-03  9.346E-05
   1    4   51     1    51    9.8330E+00  2.9217E-03   9.8301E+00  0.000E+00  0.000E+00  0.000E+00  1.27236E+02  2.386E+00  4.667E+00  1.012E-03  2.837E-03  8.447E-05
   1    4   52     1    52    9.8301E+00  2.9210E-03   9.8272E+00  0.000E+00  0.000E+00  0.000E+00  1.26936E+02  2.386E+00  4.667E+00  1.012E-03  2.843E-03  7.850E-05
   1    4   53     1    53    9.8272E+00  2.9203E-03   9.8243E+00  0.000E+00  0.000E+00  0.000E+00  1.26635E+02  2.385E+00  4.667E+00  1.012E-03  2.843E-03  7.725E-05
   1    4   54     1    54    9.8243E+00  2.9196E-03   9.8213E+00  0.000E+00  0.000E+00  0.000E+00  1.26335E+02  2.385E+00  4.666E+00  1.012E-03  2.838E-03  8.135E-05
   1    4   55     1    55    9.8213E+00  2.9189E-03   9.8184E+00  0.000E+00  0.000E+00  0.000E+00  1.26035E+02  2.385E+00  4.666E+00  1.012E-03  2.829E-03  9.010E-05
   1    4   56     1    56    9.8184E+00  2.9182E-03   9.8155E+00  0.000E+00  0.000E+00  0.000E+00  1.25734E+02  2.384E+00  4.665E+00  1.012E-03  2.826E-03  9.201E-05
   1    4   57     1    57    9.8155E+00  2.9175E-03   9.8126E+00  0.000E+00  0.000E+00  0.000E+00  1.25434E+02  2.384E+00  4.665E+00  1.012E-03  2.824E-03  9.375E-05
   1    4   58     1    58    9.8126E+00  2.9168E-03   9.8097E+00  0.000E+00  0.000E+00  0.000E+00  1.25134E+02  2.384E+00  4.664E+00  1.011E-03  2.821E-03  9.542E-05
   1    4   59     1    59    9.8097E+00  2.9161E-03   9.8067E+00  0.000E+00  0.000E+00  0.000E+00  1.24833E+02  2.383E+00  4.664E+00  1.011E-03  2.819E-03  9.714E-05
   1    4   60     1    60    9.8067E+00  2.9154E-03   9.8038E+00  0.000E+00  0.000E+00  0.000E+00  1.24533E+02  2.383E+00  4.664E+00  1.011E-03  2.817E-03  9.883E-05
   1    4   61     1    61    9.8038E+00  2.9147E-03   9.8009E+00  0.000E+00  0.000E+00  0.000E+00  1.24233E+02  2.383E+00  4.663E+00  1.011E-03  2.814E-03  1.005E-04
   1    4   62     1    62    9.8009E+00  2.9140E-03   9.7980E+00  0.000E+00  0.000E+00  0.000E+00  1.23932E+02  2.382E+00  4.663E+00  1.011E-03  2.812E-03  1.021E-04
   1    4   63     1    63    9.7980E+00  2.9133E-03   9.7951E+00  0.000E+00  0.000E+00  0.000E+00  1.23632E+02  2.382E+00  4.662E+00  1.011E-03  2.810E-03  1.034E-04
   1    4   64     1    64    9.7951E+00  2.9126E-03   9.7922E+00  0.000E+00  0.000E+00  0.000E+00  1.23332E+02  2.382E+00  4.662E+00  1.011E-03  2.825E-03  8.803E-05
   1    4   65     1    65    9.7922E+00  2.9119E-03   9.7893E+00  0.000E+00  0.000E+00  0.000E+00  1.23031E+02  2.381E+00  4.661E+00  1.011E-03  2.857E-03  5.519E-05
   1    4   66     1    66    9.7893E+00  2.9112E-03   9.7864E+00  0.000E+00  0.000E+00  0.000E+00  1.22731E+02  2.381E+00  4.661E+00  1.011E-03  2.887E-03  2.388E-05
   1    4   67     1    67    9.7864E+00  2.9105E-03   9.7834E+00  0.000E+00  0.000E+00  0.000E+00  1.22430E+02  2.380E+00  4.661E+00  1.010E-03  2.916E-03 -5.984E-06
   1    4   68     1    68    9.7834E+00  2.9098E-03   9.7805E+00  0.000E+00  0.000E+00  0.000E+00  1.22130E+02  2.380E+00  4.660E+00  1.010E-03  2.922E-03 -1.268E-05
   1    4   69     1    69    9.7805E+00  2.9091E-03   9.7776E+00  0.000E+00  0.000E+00  0.000E+00  1.21830E+02  2.380E+00  4.660E+00  1.010E-03  2.921E-03 -1.212E-05
   1    4   70     1    70    9.7776E+00  2.9084E-03   9.7747E+00  0.000E+00  0.000E+00  0.000E+00  1.21529E+02  2.379E+00  4.659E+00  1.010E-03  2.920E-03 -1.175E-05
   1    4   71     1    71    9.7747E+00  2.9077E-03   9.7718E+00  0.000E+00  0.000E+00  0.000E+00  1.21229E+02  2.379E+00  4.659E+00  1.010E-03  2.919E-03 -1.159E-05
   1    4   72     1    72    9.7718E+00  2.9070E-03   9.7689E+00  0.000E+00  0.000E+00  0.000E+00  1.20929E+02  2.379E+00  4.658E+00  1.010E-03  2.919E-03 -1.181E-05
   1    4   73     1    73    9.7689E+00  2.9063E-03   9.7660E+00  0.000E+00  0.000E+00  0.000E+00  1.20628E+02  2.378E+00  4.658E+00  1.010E-03  2.919E-03 -1.238E-05
   1    4   74     1    74    9.7660E+00  2.9056E-03   9.7631E+00  0.000E+00  0.000E+00  0.000E+00  1.20328E+02  2.378E+00  4.658E+00  1.010E-03  2.919E-03 -1.345E-05
   1    4   75     1    75    9.7631E+00  2.9049E-03   9.7602E+00  0.000E+00  0.000E+00  0.000E+00  1.20028E+02  2.378E+00  4.657E+00  1.010E-03  3.184E-03 -2.792E-04
   1    4   76     1    76    9.7602E+00  2.9042E-03   9.7573E+00  0.000E+00  0.000E+00  0.000E+00  1.19727E+02  2.377E+00  4.657E+00  1.009E-03  3.182E-03 -2.782E-04
   1    4   77     1    77    9.7573E+00  2.9035E-03   9.7544E+00  0.000E+00  0.000E+00  0.000E+00  1.19427E+02  2.377E+00  4.656E+00  1.009E-03  3.182E-03 -2.782E-04
   1    4   78     1    78    9.7544E+00  2.9028E-03   9.7515E+00  0.000E+00  0.000E+00  0.000E+00  1.19126E+02  2.376E+00  4.656E+00  1.009E-03  3.181E-03 -2.784E-04
   1    4   79     1    79    9.7515E+00  2.9021E-03   9.7486E+00  0.000E+00  0.000E+00  0.000E+00  1.18826E+02  2.376E+00  4.655E+00  1.009E-03  3.181E-03 -2.786E-04
   1    4   80     1    80    9.7486E+00  2.9014E-03   9.7457E+00  0.000E+00  0.000E+00  0.000E+00  1.18526E+02  2.376E+00  4.655E+00  1.009E-03  3.164E-03 -2.622E-04
   1    4   81     1    81    9.7457E+00  2.9007E-03   9.7428E+00  0.000E+00  0.000E+00  0.000E+00  1.18225E+02  2.375E+00  4.655E+00  1.009E-03  3.109E-03 -2.083E-04
   1    4   82     1    82    9.7428E+00  2.9000E-03   9.7399E+00  0.000E+00  0.000E+00  0.000E+00  1.17925E+02  2.375E+00  4.654E+00  1.009E-03  3.061E-03 -1.608E-04
   1    4   83     1    83    9.7399E+00  2.8993E-03   9.7370E+00  0.000E+00  0.000E+00  0.000E+00  1.17625E+02  2.375E+00  4.654E+00  1.009E-03  3.061E-03 -1.615E-04
   1    4   84     1    84    9.7370E+00  2.8986E-03   9.7341E+00  0.000E+00  0.000E+00  0.000E+00  1.17324E+02  2.374E+00  4.653E+00  1.008E-03  3.061E-03 -1.622E-04
   1    4   85     1    85    9.7341E+00  2.8979E-03   9.7312E+00  0.000E+00  0.000E+00  0.000E+00  1.17024E+02  2.374E+00  4.653E+00  1.008E-03  3.061E-03 -1.626E-04
   1    4   86     1    86    9.7312E+00  2.8972E-03   9.7283E+00  0.000E+00  0.000E+00  0.000E+00  1.16724E+02  2.374E+00  4.652E+00  1.008E-03  3.060E-03 -1.630E-04
   1    4   87     1    87    9.7283E+00  2.8965E-03   9.7254E+00  0.000E+00  0.000E+00  0.000E+00  1.16423E+02  2.373E+00  4.652E+00  1.008E-03  3.060E-03 -1.633E-04
   1    4   88     1    88    9.7254E+00  2.8958E-03   9.7225E+00  0.000E+00  0.000E+00  0.000E+00  1.16123E+02  2.373E+00  4.652E+00  1.008E-03  3.059E-03 -1.635E-04
   1    4   89     1    89    9.7225E+00  2.8951E-03   9.7196E+00  0.000E+00  0.000E+00  0.000E+00  1.15823E+02  2.373E+00  4.651E+00  1.008E-03  3.059E-03 -1.637E-04
   1    4   90     1    90    9.7196E+00  2.8945E-03   9.7167E+00  0.000E+00  0.000E+00  0.000E+00  1.15522E+02  2.372E+00  4.651E+00  1.008E-03  3.058E-03 -1.638E-04
   1    4   91     1    91    9.7167E+00  2.8938E-03   9.7138E+00  0.000E+00  0.000E+00  0.000E+00  1.15222E+02  2.372E+00  4.650E+00  1.008E-03  3.058E-03 -1.639E-04
   1    4   92     1    92    9.7138E+00  2.8931E-03   9.7109E+00  0.000E+00  0.000E+00  0.000E+00  1.14921E+02  2.371E+00  4.650E+00  1.008E-03  3.057E-03 -1.639E-04
   1    4   93     1    93    9.7109E+00  2.8924E-03   9.7080E+00  0.000E+00  0.000E+00  0.000E+00  1.14621E+02  2.371E+00  4.649E+00  1.007E-03  3.046E-03 -1.533E-04
   1    4   94     1    94    9.7080E+00  2.8917E-03   9.7051E+00  0.000E+00  0.000E+00  0.000E+00  1.14321E+02  2.371E+00  4.649E+00  1.007E-03  3.045E-03 -1.533E-04
   1    4   95     1    95    9.7051E+00  2.8910E-03   9.7022E+00  0.000E+00  0.000E+00  0.000E+00  1.14020E+02  2.370E+00  4.649E+00  1.007E-03  3.044E-03 -1.532E-04
   1    4   96     1    96    9.7022E+00  2.8903E-03   9.6993E+00  0.000E+00  0.000E+00  0.000E+00  1.13720E+02  2.370E+00  4.648E+00  1.007E-03  3.043E-03 -1.530E-04
   1    4   97     1    97    9.6993E+00  2.8896E-03   9.6965E+00  0.000E+00  0.000E+00  0.000E+00  1.13420E+02  2.370E+00  4.648E+00  1.007E-03  3.042E-03 -1.528E-04
   1    4   98     1    98    9.6965E+00  2.8889E-03   9.6936E+00  0.000E+00  0.000E+00  0.000E+00  1.13119E+02  2.369E+00  4.647E+00  1.007E-03  3.041E-03 -1.526E-04
   1    4   99     1    99    9.6936E+00  2.8882E-03   9.6907E+00  0.000E+00  0.000E+00  0.000E+00  1.12819E+02  2.369E+00  4.647E+00  1.007E-03  3.041E-03 -1.523E-04
   1    4  100     1   100    9.6907E+00  2.8875E-03   9.6878E+00  0.000E+00  0.000E+00  0.000E+00  1.12519E+02  2.369E+00  4.646E+00  1.007E-03  3.040E-03 -1.521E-04



1
  VOLUMETRIC BUDGET FOR UNSATURATED ZONE BENEATH STREAMS AT END OF TIME STEP    30 STRESS PERIOD  43
  ------------------------------------------------------------------------------------------------

    CUMULATIVE VOLUMES             L**3    RATES FOR THIS TIME STEP         L**3/T
    ------------------                     ------------------------


          STREAM LOSS =     33986400.0000            STREAM LOSS =            0.2922
    CHANGE IN STORAGE =      1920836.7500      CHANGE IN STORAGE =       -7.5093E-03
       RECHARGE TO GW =     32072896.0000         RECHARGE TO GW =            0.2997

             TOTAL IN =     33986400.0000               TOTAL IN =            0.2997

            TOTAL OUT =     33993732.0000              TOTAL OUT =            0.2997

             IN - OUT =        -7332.0000               IN - OUT =       -2.9802E-08

  PERCENT DISCREPANCY =           -0.01      PERCENT DISCREPANCY =            -0.00



1
  VOLUMETRIC BUDGET FOR ENTIRE MODEL AT END OF TIME STEP   30, STRESS PERIOD  43
  ------------------------------------------------------------------------------

     CUMULATIVE VOLUMES      L**3       RATES FOR THIS TIME STEP      L**3/T
     ------------------                 ------------------------

           IN:                                      IN:
           ---                                      ---
             STORAGE     =   112708696.0000               STORAGE     =           0.1729
       CONSTANT HEAD     =           0.0000         CONSTANT HEAD     =           0.0000
               WELLS     =           0.0000                 WELLS     =           0.0000
     HEAD DEP BOUNDS     =     2486691.5000       HEAD DEP BOUNDS     =       7.6640E-02
      STREAM LEAKAGE     =    32072622.0000        STREAM LEAKAGE     =           0.2997

                TOTAL IN =   147268000.0000                  TOTAL IN =           0.5493

          OUT:                                     OUT:
          ----                                     ----
             STORAGE     =     3633822.7500               STORAGE     =       8.2377E-03
       CONSTANT HEAD     =           0.0000         CONSTANT HEAD     =           0.0000
               WELLS     =   127248304.0000                 WELLS     =           0.5410
     HEAD DEP BOUNDS     =    16385952.0000       HEAD DEP BOUNDS     =           0.0000
      STREAM LEAKAGE     =           0.0000        STREAM LEAKAGE     =           0.0000

               TOTAL OUT =   147268080.0000                 TOTAL OUT =           0.5493

                IN - OUT =         -80.0000                  IN - OUT =           0.0000

     PERCENT DISCREPANCY =          -0.00         PERCENT DISCREPANCY =           0.00






         TIME SUMMARY AT END OF TIME STEP   30 IN STRESS PERIOD   43
                    SECONDS     MINUTES      HOURS       DAYS        YEARS
                    -----------------------------------------------------------
   TIME STEP LENGTH 2.49961E+05  4166.0      69.434      2.8931     7.92080E-03
 STRESS PERIOD TIME 2.59200E+06  43200.      720.00      30.000     8.21355E-02
         TOTAL TIME 1.11456E+08 1.85760E+06  30960.      1290.0      3.5318    
1
1
                            STRESS PERIOD NO.   44, LENGTH =   2592000.    
                            -----------------------------------------------

                              NUMBER OF TIME STEPS =    30

                               MULTIPLIER FOR DELT =     1.100

                            INITIAL TIME STEP SIZE =   15757.40    

 REUSING NON-PARAMETER WELLS FROM LAST STRESS PERIOD

      1 WELL 

 REUSING NON-PARAMETER GHB CELLS FROM LAST STRESS PERIOD

      7 GHB CELLS



 CLASSIFICATION & COUNT OF STREAM SEGMENTS BASED ON SOURCE OF INFLOW:

                HEADWATER     DIVERSION     RECEIVES TRIBUTARY FLOW
                ---------     ---------     -----------------------
                     1              0               0



                    INPUT DATA FOR EACH STREAM SEGMENT
 ---------------------------------------------------------------------------------------------

 SEGMENT    SEG.     INFLOW   OVERLAND   STREAM    STREAM   ICALC  OUTFLOW  DIVERSION PRIORITY
    NO.    LENGTH     RATE     RUNOFF      ET       PPT.    METH.  TO SEG.  FROM SEG.    NO.

      1  2.000E+04 6.510E+00 0.000E+00 0.000E+00 0.000E+00    2        0        0        0


         STREAMBED PROPERTIES AND STREAM DIMENSIONS

 SEGMENT     BED HYD. COND.      BED THICKNESS     ELEV.-TOP OF BED     WIDTH OF STREAM     DEPTH OF STREAM    STREAM ROUGHNESS
    No.     UPPER     LOWER     UPPER     LOWER     UPPER     LOWER     UPPER     LOWER     UPPER     LOWER   CHANNEL      BANK

     1  3.500E-07 3.500E-07                                                                                 3.000E-02 4.000E-02

  EIGHT POINT CROSS-SECTION DATA FOR SEGMENTS WITH ICALC = 2
    X VALUES X VALUES START FROM LEFT SIDE LOOKING DOWNSTREAM

     SEGMENT NO.        X1        X2        X3        X4        X5        X6        X7        X8
            1      0.000E+00 2.000E+00 4.000E+00 6.000E+00 8.000E+00 1.000E+01 1.200E+01 1.400E+01

    Z VALUES ARE RELATIVE TO STREAMBED ELEVATION

     SEGMENT NO.          Z1        Z2        Z3        Z4        Z5        Z6        Z7        Z8
            1      6.000E+00 4.500E+00 3.500E+00 0.000E+00 3.000E-01 3.500E+00 4.500E+00 6.000E+00



 
 SOLVING FOR HEAD 
                                                   Max.-Head-Change                         Max.-Flux-Residual
  Residual-Control   Outer-Iter.   Inner-Iter.     Column Row Layer    Maximum-Head-Change  Column Row Layer    Maximum-Flux-Residual          L2-NORM 
          0                 1           2            50    3     1      -0.6046921464E+00      50    3    1        -0.2254864464E+00      0.2858834281E+00
          0                 2           2            50    3     1       0.5932944993E-01      50    3    1         0.2240076698E-01      0.2793347928E-01
          0                 3           2            50    3     1      -0.5294197315E-02      50    3    1        -0.2022872023E-02      0.2527299574E-02
          0                 4           2            50    3     1       0.4198644082E-03      50    3    1         0.1619840260E-03      0.2023874567E-03
          0                 5           1            50    3     1      -0.2924631198E-04      50    3    1        -0.1138762209E-04      0.1422868546E-04
          0                 6           1            50    3     1       0.1756147593E-05      50    3    1         0.6900434228E-06      0.8622015473E-06
          0                 7           1            50    3     1      -0.8873593665E-07      50    3    1        -0.3518538855E-07      0.4396372759E-07

    ------------------------------------------------
       NWT REQUIRED            7 OUTER ITERATIONS 
       AND A TOTAL OF         11 INNER ITERATIONS.
    ------------------------------------------------

 NO OUTPUT CONTROL FOR STRESS PERIOD   44   TIME STEP    1
 
 WELLS WITH REDUCED PUMPING FOR STRESS PERIOD    44 TIME STEP     1
   LAY   ROW   COL         APPL.Q          ACT.Q        GW-HEAD       CELL-BOT
     1     3    50  -0.101017E+01  -0.455374E+00   0.523204E+01   0.000000E+00
     1     5    55  -0.101017E+01  -0.354356E+00   0.443066E+01   0.000000E+00
 
 
 SOLVING FOR HEAD 
                                                   Max.-Head-Change                         Max.-Flux-Residual
  Residual-Control   Outer-Iter.   Inner-Iter.     Column Row Layer    Maximum-Head-Change  Column Row Layer    Maximum-Flux-Residual          L2-NORM 
          0                 1           2            50    3     1      -0.3632861757E+00      50    3    1        -0.1257169226E+00      0.1614544376E+00
          0                 2           2            50    3     1       0.3466902833E-01      50    3    1         0.1220551428E-01      0.1550919511E-01
          0                 3           2            50    3     1      -0.3084434106E-02      50    3    1        -0.1102765061E-02      0.1403787633E-02
          0                 4           2            50    3     1       0.2443575245E-03      50    3    1         0.8829975410E-04      0.1124535908E-03
          0                 5           1            50    3     1      -0.1701760903E-04      50    3    1        -0.6207584604E-05      0.7906633533E-05
          0                 6           1            50    3     1       0.1021833258E-05      50    3    1         0.3761541114E-06      0.4791162680E-06
          0                 7           1            50    3     1      -0.5163201123E-07      50    3    1        -0.1918014009E-07      0.2443021103E-07

    ------------------------------------------------
       NWT REQUIRED            7 OUTER ITERATIONS 
       AND A TOTAL OF         11 INNER ITERATIONS.
    ------------------------------------------------

 NO OUTPUT CONTROL FOR STRESS PERIOD   44   TIME STEP    2
 
 WELLS WITH REDUCED PUMPING FOR STRESS PERIOD    44 TIME STEP     2
   LAY   ROW   COL         APPL.Q          ACT.Q        GW-HEAD       CELL-BOT
     1     3    50  -0.101017E+01  -0.410949E+00   0.490057E+01   0.000000E+00
     1     5    55  -0.101017E+01  -0.319551E+00   0.416194E+01   0.000000E+00
 
 
 SOLVING FOR HEAD 
                                                   Max.-Head-Change                         Max.-Flux-Residual
  Residual-Control   Outer-Iter.   Inner-Iter.     Column Row Layer    Maximum-Head-Change  Column Row Layer    Maximum-Flux-Residual          L2-NORM 
          0                 1           2            50    3     1      -0.2166968408E+00      50    3    1        -0.6872522828E-01      0.9128370342E-01
          0                 2           2            50    3     1       0.2044449602E-01      50    3    1         0.6671381269E-02      0.8736296210E-02
          0                 3           2            50    3     1      -0.1809388173E-02      50    3    1        -0.6023635474E-03      0.7901391522E-03
          0                 4           2            50    3     1       0.1431296960E-03      50    3    1         0.4823493067E-04      0.6334155266E-04
          0                 5           1            50    3     1      -0.9964002107E-05      50    3    1        -0.3390957671E-05      0.4454480643E-05
          0                 6           1            50    3     1       0.5982652109E-06      50    3    1         0.2054781325E-06      0.2699394719E-06

    ------------------------------------------------
       NWT REQUIRED            6 OUTER ITERATIONS 
       AND A TOTAL OF         10 INNER ITERATIONS.
    ------------------------------------------------

 NO OUTPUT CONTROL FOR STRESS PERIOD   44   TIME STEP    3
 
 WELLS WITH REDUCED PUMPING FOR STRESS PERIOD    44 TIME STEP     3
   LAY   ROW   COL         APPL.Q          ACT.Q        GW-HEAD       CELL-BOT
     1     3    50  -0.100987E+01  -0.384606E+00   0.470264E+01   0.000000E+00
     1     5    55  -0.100987E+01  -0.298681E+00   0.399820E+01   0.000000E+00
 
 
 SOLVING FOR HEAD 
                                                   Max.-Head-Change                         Max.-Flux-Residual
  Residual-Control   Outer-Iter.   Inner-Iter.     Column Row Layer    Maximum-Head-Change  Column Row Layer    Maximum-Flux-Residual          L2-NORM 
          0                 1           2            50    3     1      -0.1305705577E+00      50    3    1        -0.3747445689E-01      0.5373628801E-01
          0                 2           2            50    3     1       0.1220696341E-01      50    3    1         0.3660473403E-02      0.5110788574E-02
          0                 3           2            50    3     1      -0.1072785397E-02      50    3    1        -0.3302367777E-03      0.4618215615E-03
          0                 4           1            50    3     1       0.8467013907E-04      50    3    1         0.2644615858E-04      0.3707498736E-04
          0                 5           1            50    3     1      -0.5890471693E-05      50    3    1        -0.1859172050E-05      0.2608752996E-05
          0                 6           1            50    3     1       0.3536420583E-06      50    3    1         0.1126581367E-06      0.1581143697E-06

    ------------------------------------------------
       NWT REQUIRED            6 OUTER ITERATIONS 
       AND A TOTAL OF          9 INNER ITERATIONS.
    ------------------------------------------------

 NO OUTPUT CONTROL FOR STRESS PERIOD   44   TIME STEP    4
 
 WELLS WITH REDUCED PUMPING FOR STRESS PERIOD    44 TIME STEP     4
   LAY   ROW   COL         APPL.Q          ACT.Q        GW-HEAD       CELL-BOT
     1     3    50  -0.101014E+01  -0.369033E+00   0.458329E+01   0.000000E+00
     1     5    55  -0.101014E+01  -0.286219E+00   0.389797E+01   0.000000E+00
 
 
 SOLVING FOR HEAD 
                                                   Max.-Head-Change                         Max.-Flux-Residual
  Residual-Control   Outer-Iter.   Inner-Iter.     Column Row Layer    Maximum-Head-Change  Column Row Layer    Maximum-Flux-Residual          L2-NORM 
          0                 1           2            50    3     1      -0.8014578495E-01      50    3    1        -0.2046212680E-01      0.3425336945E-01
          0                 2           2            50    3     1       0.7406954332E-02      50    3    1         0.2012871825E-02      0.3225557028E-02
          0                 3           2            50    3     1      -0.6451935622E-03      50    3    1        -0.1814629563E-03      0.2915479325E-03
          0                 4           1            50    3     1       0.5075614439E-04      50    3    1         0.1453300746E-04      0.2347186647E-04
          0                 5           1            50    3     1      -0.3527409614E-05      50    3    1        -0.1021663960E-05      0.1653860331E-05
          0                 6           1            50    3     1       0.2117289848E-06      50    3    1         0.6190839455E-07      0.1002873620E-06

    ------------------------------------------------
       NWT REQUIRED            6 OUTER ITERATIONS 
       AND A TOTAL OF          9 INNER ITERATIONS.
    ------------------------------------------------

 NO OUTPUT CONTROL FOR STRESS PERIOD   44   TIME STEP    5
 
 WELLS WITH REDUCED PUMPING FOR STRESS PERIOD    44 TIME STEP     5
   LAY   ROW   COL         APPL.Q          ACT.Q        GW-HEAD       CELL-BOT
     1     3    50  -0.101007E+01  -0.359438E+00   0.450995E+01   0.000000E+00
     1     5    55  -0.101007E+01  -0.278511E+00   0.383593E+01   0.000000E+00
 
 
 SOLVING FOR HEAD 
                                                   Max.-Head-Change                         Max.-Flux-Residual
  Residual-Control   Outer-Iter.   Inner-Iter.     Column Row Layer    Maximum-Head-Change  Column Row Layer    Maximum-Flux-Residual          L2-NORM 
          0                 1           2            50    2     1      -0.5917297649E-01      50    3    1        -0.1139850321E-01      0.2457050138E-01
          0                 2           2            50    2     1       0.5812709333E-02      50    3    1         0.1128286536E-02      0.2303747694E-02
          0                 3           2            50    2     1      -0.5171963503E-03      50    3    1        -0.1016560923E-03      0.2088663573E-03
          0                 4           1            50    2     1       0.4101029891E-04      50    3    1         0.8141894625E-05      0.1689157340E-04
          0                 5           1            50    2     1      -0.2856040966E-05      50    3    1        -0.5723633883E-06      0.1193211834E-05
          0                 6           1            50    2     1       0.1714877879E-06      50    3    1         0.3468242402E-07      0.7242980924E-07

    ------------------------------------------------
       NWT REQUIRED            6 OUTER ITERATIONS 
       AND A TOTAL OF          9 INNER ITERATIONS.
    ------------------------------------------------

 NO OUTPUT CONTROL FOR STRESS PERIOD   44   TIME STEP    6
 
 WELLS WITH REDUCED PUMPING FOR STRESS PERIOD    44 TIME STEP     6
   LAY   ROW   COL         APPL.Q          ACT.Q        GW-HEAD       CELL-BOT
     1     3    50  -0.100994E+01  -0.353300E+00   0.446305E+01   0.000000E+00
     1     5    55  -0.100994E+01  -0.273601E+00   0.379636E+01   0.000000E+00
 
 
 SOLVING FOR HEAD 
                                                   Max.-Head-Change                         Max.-Flux-Residual
  Residual-Control   Outer-Iter.   Inner-Iter.     Column Row Layer    Maximum-Head-Change  Column Row Layer    Maximum-Flux-Residual          L2-NORM 
          0                 1           2            50    2     1      -0.5332263350E-01      50    2    1        -0.7637599597E-02      0.1971426286E-01
          0                 2           2            50    2     1       0.5234887488E-02      50    2    1         0.7604116224E-03      0.1860159654E-02
          0                 3           2            50    2     1      -0.4657553281E-03      50    2    1        -0.6847194791E-04      0.1695703937E-03
          0                 4           1            50    2     1       0.3692719869E-04      50    2    1         0.5484318814E-05      0.1378713665E-04
          0                 5           1            50    2     1      -0.2571532549E-05      50    2    1        -0.3855441086E-06      0.9771833125E-06
          0                 6           1            50    2     1       0.1544012657E-06      50    2    1         0.2336244101E-07      0.5941186867E-07

    ------------------------------------------------
       NWT REQUIRED            6 OUTER ITERATIONS 
       AND A TOTAL OF          9 INNER ITERATIONS.
    ------------------------------------------------

 NO OUTPUT CONTROL FOR STRESS PERIOD   44   TIME STEP    7
 
 WELLS WITH REDUCED PUMPING FOR STRESS PERIOD    44 TIME STEP     7
   LAY   ROW   COL         APPL.Q          ACT.Q        GW-HEAD       CELL-BOT
     1     3    50  -0.100988E+01  -0.349155E+00   0.443120E+01   0.000000E+00
     1     5    55  -0.100988E+01  -0.270326E+00   0.376978E+01   0.000000E+00
 
 
 SOLVING FOR HEAD 
                                                   Max.-Head-Change                         Max.-Flux-Residual
  Residual-Control   Outer-Iter.   Inner-Iter.     Column Row Layer    Maximum-Head-Change  Column Row Layer    Maximum-Flux-Residual          L2-NORM 
          0                 1           2            50    2     1      -0.4781074031E-01      50    2    1        -0.6257168738E-02      0.1705347834E-01
          0                 2           2            50    2     1       0.4692691794E-02      50    2    1         0.6226914160E-03      0.1626319137E-02
          0                 3           2            50    2     1      -0.4174539201E-03      50    2    1        -0.5607324145E-04      0.1491561058E-03
          0                 4           1            50    2     1       0.3309338530E-04      50    2    1         0.4491215109E-05      0.1219375300E-04
          0                 5           1            50    2     1      -0.2304382718E-05      50    2    1        -0.3157296692E-06      0.8675199341E-06
          0                 6           1            50    2     1       0.1383566269E-06      50    2    1         0.1913196243E-07      0.5285279581E-07

    ------------------------------------------------
       NWT REQUIRED            6 OUTER ITERATIONS 
       AND A TOTAL OF          9 INNER ITERATIONS.
    ------------------------------------------------

 NO OUTPUT CONTROL FOR STRESS PERIOD   44   TIME STEP    8
 
 WELLS WITH REDUCED PUMPING FOR STRESS PERIOD    44 TIME STEP     8
   LAY   ROW   COL         APPL.Q          ACT.Q        GW-HEAD       CELL-BOT
     1     3    50  -0.100991E+01  -0.346161E+00   0.440797E+01   0.000000E+00
     1     5    55  -0.100991E+01  -0.268004E+00   0.375074E+01   0.000000E+00
 
 
 SOLVING FOR HEAD 
                                                   Max.-Head-Change                         Max.-Flux-Residual
  Residual-Control   Outer-Iter.   Inner-Iter.     Column Row Layer    Maximum-Head-Change  Column Row Layer    Maximum-Flux-Residual          L2-NORM 
          0                 1           2            50    2     1      -0.4296363207E-01      50    2    1        -0.5100448142E-02      0.1539931452E-01
          0                 2           2            50    2     1       0.4216710506E-02      50    2    1         0.5075970705E-03      0.1482828323E-02
          0                 3           2            50    2     1      -0.3750274376E-03      50    2    1        -0.4570866579E-04      0.1367881717E-03
          0                 4           1            50    2     1       0.2972547782E-04      50    2    1         0.3661062263E-05      0.1124449183E-04
          0                 5           1            50    2     1      -0.2069670852E-05      50    2    1        -0.2573704137E-06      0.8033123467E-06
          0                 6           1            50    2     1       0.1242590838E-06      50    2    1         0.1559562379E-07      0.4906331256E-07

    ------------------------------------------------
       NWT REQUIRED            6 OUTER ITERATIONS 
       AND A TOTAL OF          9 INNER ITERATIONS.
    ------------------------------------------------

 NO OUTPUT CONTROL FOR STRESS PERIOD   44   TIME STEP    9
 
 WELLS WITH REDUCED PUMPING FOR STRESS PERIOD    44 TIME STEP     9
   LAY   ROW   COL         APPL.Q          ACT.Q        GW-HEAD       CELL-BOT
     1     3    50  -0.100996E+01  -0.343842E+00   0.438987E+01   0.000000E+00
     1     5    55  -0.100996E+01  -0.266241E+00   0.373618E+01   0.000000E+00
 
 
 SOLVING FOR HEAD 
                                                   Max.-Head-Change                         Max.-Flux-Residual
  Residual-Control   Outer-Iter.   Inner-Iter.     Column Row Layer    Maximum-Head-Change  Column Row Layer    Maximum-Flux-Residual          L2-NORM 
          0                 1           2            50    2     1      -0.3884389035E-01      50    2    1        -0.4166704629E-02      0.1425815842E-01
          0                 2           2            50    2     1       0.3812246094E-02      50    2    1         0.4147887115E-03      0.1382219970E-02
          0                 3           2            50    2     1      -0.3389562628E-03      50    2    1        -0.3735011314E-04      0.1281972891E-03
          0                 4           1            50    2     1       0.2686136381E-04      50    2    1         0.2991589220E-05      0.1059848998E-04
          0                 5           1            50    2     1      -0.1870027161E-05      50    2    1        -0.2103068087E-06      0.7606252234E-06
          0                 6           1            50    2     1       0.1122662487E-06      50    2    1         0.1274375666E-07      0.4659338773E-07

    ------------------------------------------------
       NWT REQUIRED            6 OUTER ITERATIONS 
       AND A TOTAL OF          9 INNER ITERATIONS.
    ------------------------------------------------

 NO OUTPUT CONTROL FOR STRESS PERIOD   44   TIME STEP   10
 
 WELLS WITH REDUCED PUMPING FOR STRESS PERIOD    44 TIME STEP    10
   LAY   ROW   COL         APPL.Q          ACT.Q        GW-HEAD       CELL-BOT
     1     3    50  -0.100991E+01  -0.341922E+00   0.437508E+01   0.000000E+00
     1     5    55  -0.100991E+01  -0.264808E+00   0.372451E+01   0.000000E+00
 
 
 SOLVING FOR HEAD 
                                                   Max.-Head-Change                         Max.-Flux-Residual
  Residual-Control   Outer-Iter.   Inner-Iter.     Column Row Layer    Maximum-Head-Change  Column Row Layer    Maximum-Flux-Residual          L2-NORM 
          0                 1           2            50    1     1      -0.3802899094E-01      50    2    1        -0.3424696646E-02      0.1342852443E-01
          0                 2           2            50    1     1       0.3757310200E-02      50    2    1         0.3410709609E-03      0.1308556457E-02
          0                 3           2            50    1     1      -0.3349036195E-03      50    2    1        -0.3071063093E-04      0.1220136390E-03
          0                 4           1            50    1     1       0.2657226570E-04      50    2    1         0.2459806150E-05      0.1014548466E-04
          0                 5           1            50    1     1      -0.1850470714E-05      50    2    1        -0.1729227239E-06      0.7315871052E-06
          0                 6           1            50    1     1       0.1110912382E-06      50    2    1         0.1047843014E-07      0.4496134943E-07

    ------------------------------------------------
       NWT REQUIRED            6 OUTER ITERATIONS 
       AND A TOTAL OF          9 INNER ITERATIONS.
    ------------------------------------------------

 NO OUTPUT CONTROL FOR STRESS PERIOD   44   TIME STEP   11
 
 WELLS WITH REDUCED PUMPING FOR STRESS PERIOD    44 TIME STEP    11
   LAY   ROW   COL         APPL.Q          ACT.Q        GW-HEAD       CELL-BOT
     1     3    50  -0.101003E+01  -0.340308E+00   0.436224E+01   0.000000E+00
     1     5    55  -0.101003E+01  -0.263624E+00   0.371452E+01   0.000000E+00
 
 
 SOLVING FOR HEAD 
                                                   Max.-Head-Change                         Max.-Flux-Residual
  Residual-Control   Outer-Iter.   Inner-Iter.     Column Row Layer    Maximum-Head-Change  Column Row Layer    Maximum-Flux-Residual          L2-NORM 
          0                 1           2            50    1     1      -0.3724944369E-01      50    1    1        -0.3046086929E-02      0.1277906416E-01
          0                 2           2            50    1     1       0.3678830125E-02      50    1    1         0.3039263443E-03      0.1248951195E-02
          0                 3           2            50    1     1      -0.3278823922E-03      50    1    1        -0.2736016809E-04      0.1170228344E-03
          0                 4           1            50    1     1       0.2601312549E-04      50    1    1         0.2191495494E-05      0.9789414351E-05
          0                 5           1            50    1     1      -0.1811296261E-05      50    1    1        -0.1540104292E-06      0.7096378791E-06
          0                 6           1            50    1     1       0.1087284752E-06      50    1    1         0.9329607253E-08      0.4377851165E-07

    ------------------------------------------------
       NWT REQUIRED            6 OUTER ITERATIONS 
       AND A TOTAL OF          9 INNER ITERATIONS.
    ------------------------------------------------

 NO OUTPUT CONTROL FOR STRESS PERIOD   44   TIME STEP   12
 
 WELLS WITH REDUCED PUMPING FOR STRESS PERIOD    44 TIME STEP    12
   LAY   ROW   COL         APPL.Q          ACT.Q        GW-HEAD       CELL-BOT
     1     3    50  -0.101005E+01  -0.338857E+00   0.435090E+01   0.000000E+00
     1     5    55  -0.101005E+01  -0.262574E+00   0.370584E+01   0.000000E+00
 
 
 SOLVING FOR HEAD 
                                                   Max.-Head-Change                         Max.-Flux-Residual
  Residual-Control   Outer-Iter.   Inner-Iter.     Column Row Layer    Maximum-Head-Change  Column Row Layer    Maximum-Flux-Residual          L2-NORM 
          0                 1           2            50    1     1      -0.3605563783E-01      50    1    1        -0.2712510801E-02      0.1226463440E-01
          0                 2           2            50    1     1       0.3559606063E-02      50    1    1         0.2705618336E-03      0.1200528487E-02
          0                 3           2            50    1     1      -0.3172112555E-03      50    1    1        -0.2435741268E-04      0.1130192830E-03
          0                 4           1            50    1     1       0.2516393084E-04      50    1    1         0.1950974317E-05      0.9513411345E-05
          0                 5           1            50    1     1      -0.1751849372E-05      50    1    1        -0.1370854385E-06      0.6934781386E-06
          0                 6           1            50    1     1       0.1051452344E-06      50    1    1         0.8303153609E-08      0.4296206115E-07

    ------------------------------------------------
       NWT REQUIRED            6 OUTER ITERATIONS 
       AND A TOTAL OF          9 INNER ITERATIONS.
    ------------------------------------------------

 NO OUTPUT CONTROL FOR STRESS PERIOD   44   TIME STEP   13
 
 WELLS WITH REDUCED PUMPING FOR STRESS PERIOD    44 TIME STEP    13
   LAY   ROW   COL         APPL.Q          ACT.Q        GW-HEAD       CELL-BOT
     1     3    50  -0.101005E+01  -0.337540E+00   0.434065E+01   0.000000E+00
     1     5    55  -0.101005E+01  -0.261633E+00   0.369808E+01   0.000000E+00
 
 
 SOLVING FOR HEAD 
                                                   Max.-Head-Change                         Max.-Flux-Residual
  Residual-Control   Outer-Iter.   Inner-Iter.     Column Row Layer    Maximum-Head-Change  Column Row Layer    Maximum-Flux-Residual          L2-NORM 
          0                 1           2            50    1     1      -0.3457994941E-01      50    1    1        -0.2386974098E-02      0.1184689428E-01
          0                 2           2            50    1     1       0.3412663533E-02      50    1    1         0.2380488198E-03      0.1161184186E-02
          0                 3           2            50    1     1      -0.3040562364E-03      50    1    1        -0.2143083300E-04      0.1098125526E-03
          0                 4           1            50    1     1       0.2411685438E-04      50    1    1         0.1716558473E-05      0.9301670832E-05
          0                 5           1            50    1     1      -0.1678516908E-05      50    1    1        -0.1205863697E-06      0.6819689348E-06
          0                 6           1            50    1     1       0.1007239626E-06      50    1    1         0.7302371208E-08      0.4244049070E-07

    ------------------------------------------------
       NWT REQUIRED            6 OUTER ITERATIONS 
       AND A TOTAL OF          9 INNER ITERATIONS.
    ------------------------------------------------

 NO OUTPUT CONTROL FOR STRESS PERIOD   44   TIME STEP   14
 
 WELLS WITH REDUCED PUMPING FOR STRESS PERIOD    44 TIME STEP    14
   LAY   ROW   COL         APPL.Q          ACT.Q        GW-HEAD       CELL-BOT
     1     3    50  -0.101002E+01  -0.336320E+00   0.433123E+01   0.000000E+00
     1     5    55  -0.101002E+01  -0.260772E+00   0.369105E+01   0.000000E+00
 
 
 SOLVING FOR HEAD 
                                                   Max.-Head-Change                         Max.-Flux-Residual
  Residual-Control   Outer-Iter.   Inner-Iter.     Column Row Layer    Maximum-Head-Change  Column Row Layer    Maximum-Flux-Residual          L2-NORM 
          0                 1           2            50    1     1      -0.3293549801E-01      50    1    1        -0.2081236060E-02      0.1150204057E-01
          0                 2           2            50    1     1       0.3249086631E-02      50    1    1         0.2075426014E-03      0.1128746831E-02
          0                 3           2            50    1     1      -0.2894035983E-03      50    1    1        -0.1868460641E-04      0.1072299765E-03
          0                 4           1            50    1     1       0.2295016863E-04      50    1    1         0.1496590974E-05      0.9139596164E-05
          0                 5           1            50    1     1      -0.1596734929E-05      50    1    1        -0.1050993212E-06      0.6739404961E-06
          0                 6           1            50    1     1       0.9579031462E-07      50    1    1         0.6362766758E-08      0.4213460959E-07

    ------------------------------------------------
       NWT REQUIRED            6 OUTER ITERATIONS 
       AND A TOTAL OF          9 INNER ITERATIONS.
    ------------------------------------------------

 NO OUTPUT CONTROL FOR STRESS PERIOD   44   TIME STEP   15
 
 WELLS WITH REDUCED PUMPING FOR STRESS PERIOD    44 TIME STEP    15
   LAY   ROW   COL         APPL.Q          ACT.Q        GW-HEAD       CELL-BOT
     1     3    50  -0.101002E+01  -0.335185E+00   0.432238E+01   0.000000E+00
     1     5    55  -0.101002E+01  -0.259979E+00   0.368450E+01   0.000000E+00
 
 
 SOLVING FOR HEAD 
                                                   Max.-Head-Change                         Max.-Flux-Residual
  Residual-Control   Outer-Iter.   Inner-Iter.     Column Row Layer    Maximum-Head-Change  Column Row Layer    Maximum-Flux-Residual          L2-NORM 
          0                 1           2            50    1     1      -0.3121090693E-01      50    1    1        -0.1802123919E-02      0.1121207177E-01
          0                 2           2            50    1     1       0.3077339328E-02      50    1    1         0.1797097762E-03      0.1101127554E-02
          0                 3           2            50    1     1      -0.2740144066E-03      50    1    1        -0.1617888391E-04      0.1050580740E-03
          0                 4           1            50    1     1       0.2172448279E-04      50    1    1         0.1295888668E-05      0.9009273276E-05
          0                 5           1            50    1     1      -0.1510712818E-05      50    1    1        -0.9096251447E-07      0.6681276661E-06
          0                 6           1            50    1     1       0.9059650577E-07      50    1    1         0.5504831535E-08      0.4196990667E-07

    ------------------------------------------------
       NWT REQUIRED            6 OUTER ITERATIONS 
       AND A TOTAL OF          9 INNER ITERATIONS.
    ------------------------------------------------

 NO OUTPUT CONTROL FOR STRESS PERIOD   44   TIME STEP   16
 
 WELLS WITH REDUCED PUMPING FOR STRESS PERIOD    44 TIME STEP    16
   LAY   ROW   COL         APPL.Q          ACT.Q        GW-HEAD       CELL-BOT
     1     3    50  -0.101002E+01  -0.334108E+00   0.431398E+01   0.000000E+00
     1     5    55  -0.101002E+01  -0.259235E+00   0.367835E+01   0.000000E+00
 
 
 SOLVING FOR HEAD 
                                                   Max.-Head-Change                         Max.-Flux-Residual
  Residual-Control   Outer-Iter.   Inner-Iter.     Column Row Layer    Maximum-Head-Change  Column Row Layer    Maximum-Flux-Residual          L2-NORM 
          0                 1           2            50    1     1      -0.2947446042E-01      50    1    1        -0.1552585667E-02      0.1096764276E-01
          0                 2           2            50    1     1       0.2904178919E-02      50    1    1         0.1548349230E-03      0.1077324610E-02
          0                 3           2            50    1     1      -0.2584616799E-03      50    1    1        -0.1393937540E-04      0.1032076570E-03
          0                 4           1            50    1     1       0.2048495258E-04      50    1    1         0.1116510131E-05      0.8904704622E-05
          0                 5           1            50    1     1      -0.1423623702E-05      50    1    1        -0.7832072035E-07      0.6641203261E-06
          0                 6           1            50    1     1       0.8533637971E-07       2    4    1        -0.4992777747E-08      0.4191876554E-07

    ------------------------------------------------
       NWT REQUIRED            6 OUTER ITERATIONS 
       AND A TOTAL OF          9 INNER ITERATIONS.
    ------------------------------------------------

 NO OUTPUT CONTROL FOR STRESS PERIOD   44   TIME STEP   17
 
 WELLS WITH REDUCED PUMPING FOR STRESS PERIOD    44 TIME STEP    17
   LAY   ROW   COL         APPL.Q          ACT.Q        GW-HEAD       CELL-BOT
     1     3    50  -0.101004E+01  -0.333082E+00   0.430591E+01   0.000000E+00
     1     5    55  -0.101004E+01  -0.258533E+00   0.367250E+01   0.000000E+00
 
 
 SOLVING FOR HEAD 
                                                   Max.-Head-Change                         Max.-Flux-Residual
  Residual-Control   Outer-Iter.   Inner-Iter.     Column Row Layer    Maximum-Head-Change  Column Row Layer    Maximum-Flux-Residual          L2-NORM 
          0                 1           2            50    1     1      -0.2777258855E-01      50    1    1        -0.1332997676E-02      0.1075838120E-01
          0                 2           2            50    1     1       0.2734435843E-02      50    1    1         0.1329491314E-03      0.1057323826E-02
          0                 3           2            50    1     1      -0.2432113221E-03      50    1    1        -0.1196894046E-04      0.1016965338E-03
          0                 4           1            50    1     1       0.1926779364E-04      50    1    1         0.9586839504E-06      0.8826709811E-05
          0                 5           1            50    1     1      -0.1337822424E-05       2    4    1         0.7475752639E-07      0.6619084572E-06
          0                 6           1            50    1     1       0.8014188756E-07       2    4    1        -0.5155992966E-08      0.4197607413E-07

    ------------------------------------------------
       NWT REQUIRED            6 OUTER ITERATIONS 
       AND A TOTAL OF          9 INNER ITERATIONS.
    ------------------------------------------------

 NO OUTPUT CONTROL FOR STRESS PERIOD   44   TIME STEP   18
 
 WELLS WITH REDUCED PUMPING FOR STRESS PERIOD    44 TIME STEP    18
   LAY   ROW   COL         APPL.Q          ACT.Q        GW-HEAD       CELL-BOT
     1     3    50  -0.101003E+01  -0.332091E+00   0.429820E+01   0.000000E+00
     1     5    55  -0.101003E+01  -0.257860E+00   0.366695E+01   0.000000E+00
 
 
 SOLVING FOR HEAD 
                                                   Max.-Head-Change                         Max.-Flux-Residual
  Residual-Control   Outer-Iter.   Inner-Iter.     Column Row Layer    Maximum-Head-Change  Column Row Layer    Maximum-Flux-Residual          L2-NORM 
          0                 1           2            50    1     1      -0.2613409052E-01      50    1    1        -0.1141924550E-02      0.1058986931E-01
          0                 2           2            50    1     1       0.2570716145E-02      50    1    1         0.1139059382E-03      0.1041191389E-02
          0                 3           2            50    1     1      -0.2284922006E-03      50    1    1        -0.1025442675E-04      0.1004812900E-03
          0                 4           1            50    1     1       0.1809221348E-04       1    4    1        -0.8668827860E-06      0.8768288871E-05
          0                 5           1            50    1     1      -0.1254728329E-05       2    4    1         0.7657997259E-07      0.6608008851E-06
          0                 6           1            50    1     1       0.7510329369E-07       2    4    1        -0.5312429607E-08      0.4209392767E-07

    ------------------------------------------------
       NWT REQUIRED            6 OUTER ITERATIONS 
       AND A TOTAL OF          9 INNER ITERATIONS.
    ------------------------------------------------

 NO OUTPUT CONTROL FOR STRESS PERIOD   44   TIME STEP   19
 
 WELLS WITH REDUCED PUMPING FOR STRESS PERIOD    44 TIME STEP    19
   LAY   ROW   COL         APPL.Q          ACT.Q        GW-HEAD       CELL-BOT
     1     3    50  -0.100998E+01  -0.331132E+00   0.429085E+01   0.000000E+00
     1     5    55  -0.100998E+01  -0.257212E+00   0.366171E+01   0.000000E+00
 
 
 SOLVING FOR HEAD 
                                                   Max.-Head-Change                         Max.-Flux-Residual
  Residual-Control   Outer-Iter.   Inner-Iter.     Column Row Layer    Maximum-Head-Change  Column Row Layer    Maximum-Flux-Residual          L2-NORM 
          0                 1           2            51    1     1      -0.2552288240E-01      50    1    1        -0.9769523723E-03      0.1045413554E-01
          0                 2           2            51    1     1       0.2499806444E-02      50    1    1         0.9746437563E-04      0.1026859844E-02
          0                 3           2            51    1     1      -0.2216789686E-03      50    1    1        -0.8774142619E-05      0.9936540119E-04
          0                 4           1            51    1     1       0.1754129758E-04       1    4    1        -0.8808950938E-06      0.8715746704E-05
          0                 5           1            51    1     1      -0.1218200208E-05       2    4    1         0.7830617577E-07      0.6599135407E-06
          0                 6           1            51    1     1       0.7301112219E-07       2    4    1        -0.5461338048E-08      0.4221908735E-07

    ------------------------------------------------
       NWT REQUIRED            6 OUTER ITERATIONS 
       AND A TOTAL OF          9 INNER ITERATIONS.
    ------------------------------------------------

 NO OUTPUT CONTROL FOR STRESS PERIOD   44   TIME STEP   20
 
 WELLS WITH REDUCED PUMPING FOR STRESS PERIOD    44 TIME STEP    20
   LAY   ROW   COL         APPL.Q          ACT.Q        GW-HEAD       CELL-BOT
     1     3    50  -0.100997E+01  -0.330213E+00   0.428368E+01   0.000000E+00
     1     5    55  -0.100997E+01  -0.256600E+00   0.365665E+01   0.000000E+00
 
 
 SOLVING FOR HEAD 
                                                   Max.-Head-Change                         Max.-Flux-Residual
  Residual-Control   Outer-Iter.   Inner-Iter.     Column Row Layer    Maximum-Head-Change  Column Row Layer    Maximum-Flux-Residual          L2-NORM 
          0                 1           2            51    1     1      -0.2546918430E-01      51    1    1        -0.8677198578E-03      0.1033013373E-01
          0                 2           2            51    1     1       0.2490892691E-02      51    1    1         0.8661756692E-04      0.1015249962E-02
          0                 3           2            51    1     1      -0.2206835628E-03      51    1    1        -0.7797302298E-05      0.9855648739E-04
          0                 4           1            51    1     1       0.1745100946E-04       1    4    1        -0.8939635769E-06      0.8688886159E-05
          0                 5           1            51    1     1      -0.1210558488E-05       2    4    1         0.7993368456E-07      0.6605924185E-06
          0                 6           1            51    1     1       0.7249895701E-07       2    4    1        -0.5602036168E-08      0.4242320164E-07

    ------------------------------------------------
       NWT REQUIRED            6 OUTER ITERATIONS 
       AND A TOTAL OF          9 INNER ITERATIONS.
    ------------------------------------------------

 NO OUTPUT CONTROL FOR STRESS PERIOD   44   TIME STEP   21
 
 WELLS WITH REDUCED PUMPING FOR STRESS PERIOD    44 TIME STEP    21
   LAY   ROW   COL         APPL.Q          ACT.Q        GW-HEAD       CELL-BOT
     1     3    50  -0.101000E+01  -0.329323E+00   0.427663E+01   0.000000E+00
     1     5    55  -0.101000E+01  -0.256012E+00   0.365170E+01   0.000000E+00
 
 
 SOLVING FOR HEAD 
                                                   Max.-Head-Change                         Max.-Flux-Residual
  Residual-Control   Outer-Iter.   Inner-Iter.     Column Row Layer    Maximum-Head-Change  Column Row Layer    Maximum-Flux-Residual          L2-NORM 
          0                 1           2            51    1     1      -0.2527693139E-01      51    1    1        -0.7872843476E-03      0.1023720918E-01
          0                 2           2            51    1     1       0.2468383367E-02      51    1    1         0.7857435222E-04      0.1003467826E-02
          0                 3           2            51    1     1      -0.2184518394E-03       1    4    1         0.7171655696E-05      0.9753666908E-04
          0                 4           1            51    1     1       0.1726017108E-04       1    4    1        -0.8972961112E-06      0.8638813508E-05
          0                 5           1            51    1     1      -0.1195407220E-05       2    4    1         0.8088460390E-07      0.6593481882E-06
          0                 6           1            51    1     1       0.7151501027E-07       2    4    1        -0.5708287176E-08      0.4251056404E-07

    ------------------------------------------------
       NWT REQUIRED            6 OUTER ITERATIONS 
       AND A TOTAL OF          9 INNER ITERATIONS.
    ------------------------------------------------

 NO OUTPUT CONTROL FOR STRESS PERIOD   44   TIME STEP   22
 
 WELLS WITH REDUCED PUMPING FOR STRESS PERIOD    44 TIME STEP    22
   LAY   ROW   COL         APPL.Q          ACT.Q        GW-HEAD       CELL-BOT
     1     3    50  -0.100999E+01  -0.328481E+00   0.427006E+01   0.000000E+00
     1     5    55  -0.100999E+01  -0.255469E+00   0.364721E+01   0.000000E+00
 
 
 SOLVING FOR HEAD 
                                                   Max.-Head-Change                         Max.-Flux-Residual
  Residual-Control   Outer-Iter.   Inner-Iter.     Column Row Layer    Maximum-Head-Change  Column Row Layer    Maximum-Flux-Residual          L2-NORM 
          0                 1           2             4    4     1      -0.2897210068E-01      51    1    1        -0.7104091103E-03      0.1043466761E-01
          0                 2           2             3    1     1       0.2464216831E-02      51    1    1         0.7089681075E-04      0.9914458403E-03
          0                 3           2            51    1     1      -0.2153381205E-03      51    1    1        -0.6382348180E-05      0.9527709426E-04
          0                 4           1            51    1     1       0.1698810164E-04       1    4    1        -0.8275091474E-06      0.8473932347E-05
          0                 5           1            51    1     1      -0.1173354729E-05       2    4    1         0.7819294723E-07      0.6510383990E-06
          0                 6           1            51    1     1       0.7006045815E-07       2    4    1        -0.5664954728E-08      0.4227771255E-07

    ------------------------------------------------
       NWT REQUIRED            6 OUTER ITERATIONS 
       AND A TOTAL OF          9 INNER ITERATIONS.
    ------------------------------------------------

 NO OUTPUT CONTROL FOR STRESS PERIOD   44   TIME STEP   23
 
 WELLS WITH REDUCED PUMPING FOR STRESS PERIOD    44 TIME STEP    23
   LAY   ROW   COL         APPL.Q          ACT.Q        GW-HEAD       CELL-BOT
     1     3    50  -0.101002E+01  -0.327647E+00   0.426346E+01   0.000000E+00
     1     5    55  -0.101002E+01  -0.254933E+00   0.364271E+01   0.000000E+00
 
 
 SOLVING FOR HEAD 
                                                   Max.-Head-Change                         Max.-Flux-Residual
  Residual-Control   Outer-Iter.   Inner-Iter.     Column Row Layer    Maximum-Head-Change  Column Row Layer    Maximum-Flux-Residual          L2-NORM 
          0                 1           2             1    4     1      -0.3191549073E-01       3    5    1        -0.7376961196E-03      0.1063166544E-01
          0                 2           2             1    1     1       0.2781003400E-02       3    3    1         0.7376852668E-04      0.1017138557E-02
          0                 3           2             1    1     1      -0.2219036586E-03       6    4    1         0.7104581652E-05      0.9827373486E-04
          0                 4           1            51    1     1       0.1674189977E-04       5    4    1        -0.9300502306E-06      0.8781984900E-05
          0                 5           1            51    1     1      -0.1152654377E-05       4    4    1         0.8618702552E-07      0.6757185549E-06
          0                 6           1            51    1     1       0.6867882472E-07       4    4    1        -0.6181707590E-08      0.4394928920E-07

    ------------------------------------------------
       NWT REQUIRED            6 OUTER ITERATIONS 
       AND A TOTAL OF          9 INNER ITERATIONS.
    ------------------------------------------------

 NO OUTPUT CONTROL FOR STRESS PERIOD   44   TIME STEP   24
 
 WELLS WITH REDUCED PUMPING FOR STRESS PERIOD    44 TIME STEP    24
   LAY   ROW   COL         APPL.Q          ACT.Q        GW-HEAD       CELL-BOT
     1     3    50  -0.101000E+01  -0.326808E+00   0.425693E+01   0.000000E+00
     1     5    55  -0.101000E+01  -0.254391E+00   0.363826E+01   0.000000E+00
 
 
 SOLVING FOR HEAD 
                                                   Max.-Head-Change                         Max.-Flux-Residual
  Residual-Control   Outer-Iter.   Inner-Iter.     Column Row Layer    Maximum-Head-Change  Column Row Layer    Maximum-Flux-Residual          L2-NORM 
          0                 1           2             1    1     1      -0.3483743775E-01       1    5    1        -0.7484818637E-03      0.1073279390E-01
          0                 2           2             1    1     1       0.3071186246E-02       1    3    1         0.7484114387E-04      0.1040780558E-02
          0                 3           2             1    1     1      -0.2446497212E-03       1    4    1         0.7745350388E-05      0.1013032549E-03
          0                 4           1             1    1     1       0.1742853681E-04       1    4    1        -0.9869963655E-06      0.9084189864E-05
          0                 5           1            51    1     1      -0.1134574971E-05       2    4    1         0.9057350425E-07      0.6981768768E-06
          0                 6           1            51    1     1       0.6743453411E-07       2    4    1        -0.6463675817E-08      0.4537752215E-07

    ------------------------------------------------
       NWT REQUIRED            6 OUTER ITERATIONS 
       AND A TOTAL OF          9 INNER ITERATIONS.
    ------------------------------------------------

 NO OUTPUT CONTROL FOR STRESS PERIOD   44   TIME STEP   25
 
 WELLS WITH REDUCED PUMPING FOR STRESS PERIOD    44 TIME STEP    25
   LAY   ROW   COL         APPL.Q          ACT.Q        GW-HEAD       CELL-BOT
     1     3    50  -0.101001E+01  -0.325978E+00   0.425038E+01   0.000000E+00
     1     5    55  -0.101001E+01  -0.253855E+00   0.363377E+01   0.000000E+00
 
 
 SOLVING FOR HEAD 
                                                   Max.-Head-Change                         Max.-Flux-Residual
  Residual-Control   Outer-Iter.   Inner-Iter.     Column Row Layer    Maximum-Head-Change  Column Row Layer    Maximum-Flux-Residual          L2-NORM 
          0                 1           2             1    1     1      -0.3856476966E-01       1    5    1        -0.7437492440E-03      0.1080190848E-01
          0                 2           2             1    1     1       0.3391570352E-02       1    3    1         0.7437232655E-04      0.1047244183E-02
          0                 3           2             1    1     1      -0.2691418572E-03       1    4    1         0.7526823847E-05      0.1019828146E-03
          0                 4           1             1    1     1       0.1906255914E-04       1    4    1        -0.9783498065E-06      0.9168991539E-05
          0                 5           1             1    1     1      -0.1158555934E-05       2    4    1         0.9064978812E-07      0.7042463380E-06
          0                 6           1            51    1     1       0.6634665706E-07       2    4    1        -0.6506667205E-08      0.4579900207E-07

    ------------------------------------------------
       NWT REQUIRED            6 OUTER ITERATIONS 
       AND A TOTAL OF          9 INNER ITERATIONS.
    ------------------------------------------------

 NO OUTPUT CONTROL FOR STRESS PERIOD   44   TIME STEP   26
 
 WELLS WITH REDUCED PUMPING FOR STRESS PERIOD    44 TIME STEP    26
   LAY   ROW   COL         APPL.Q          ACT.Q        GW-HEAD       CELL-BOT
     1     3    50  -0.101001E+01  -0.325147E+00   0.424387E+01   0.000000E+00
     1     5    55  -0.101001E+01  -0.253322E+00   0.362934E+01   0.000000E+00
 
 
 SOLVING FOR HEAD 
                                                   Max.-Head-Change                         Max.-Flux-Residual
  Residual-Control   Outer-Iter.   Inner-Iter.     Column Row Layer    Maximum-Head-Change  Column Row Layer    Maximum-Flux-Residual          L2-NORM 
          0                 1           3             1    4     1      -0.4293067448E-01       1    5    1        -0.7493740259E-03      0.1090337610E-01
          0                 2           2             1    1     1       0.3763922434E-02       1    5    1         0.7493680394E-04      0.1054438139E-02
          0                 3           2             1    1     1      -0.2976236781E-03       1    4    1         0.7400192821E-05      0.1026309413E-03
          0                 4           1             1    1     1       0.2095942412E-04       1    4    1        -0.9787401751E-06      0.9250042212E-05
          0                 5           1             1    1     1      -0.1250893372E-05       2    4    1         0.9164551074E-07      0.7092106545E-06
          0                 6           1             1    1     1       0.6606787722E-07       2    4    1        -0.6598220637E-08      0.4611622290E-07

    ------------------------------------------------
       NWT REQUIRED            6 OUTER ITERATIONS 
       AND A TOTAL OF         10 INNER ITERATIONS.
    ------------------------------------------------

 NO OUTPUT CONTROL FOR STRESS PERIOD   44   TIME STEP   27
 
 WELLS WITH REDUCED PUMPING FOR STRESS PERIOD    44 TIME STEP    27
   LAY   ROW   COL         APPL.Q          ACT.Q        GW-HEAD       CELL-BOT
     1     3    50  -0.101000E+01  -0.324317E+00   0.423736E+01   0.000000E+00
     1     5    55  -0.101000E+01  -0.252787E+00   0.362490E+01   0.000000E+00
 
 
 SOLVING FOR HEAD 
                                                   Max.-Head-Change                         Max.-Flux-Residual
  Residual-Control   Outer-Iter.   Inner-Iter.     Column Row Layer    Maximum-Head-Change  Column Row Layer    Maximum-Flux-Residual          L2-NORM 
          0                 1           3             1    3     1      -0.4770179295E-01       1    5    1        -0.7590587391E-03      0.1102042164E-01
          0                 2           2             1    1     1       0.4178996361E-02       1    5    1         0.7590403817E-04      0.1065137156E-02
          0                 3           2             1    1     1      -0.3295910005E-03       1    4    1         0.7487429880E-05      0.1036661895E-03
          0                 4           1             1    1     1       0.2309748927E-04       1    4    1        -0.9936391869E-06      0.9362203528E-05
          0                 5           1             1    1     1      -0.1350164794E-05       2    4    1         0.9333880158E-07      0.7150412771E-06
          0                 6           1             1    1     1       0.7020173087E-07       2    4    1        -0.6719030665E-08      0.4642131221E-07

    ------------------------------------------------
       NWT REQUIRED            6 OUTER ITERATIONS 
       AND A TOTAL OF         10 INNER ITERATIONS.
    ------------------------------------------------

 NO OUTPUT CONTROL FOR STRESS PERIOD   44   TIME STEP   28
 
 WELLS WITH REDUCED PUMPING FOR STRESS PERIOD    44 TIME STEP    28
   LAY   ROW   COL         APPL.Q          ACT.Q        GW-HEAD       CELL-BOT
     1     3    50  -0.100998E+01  -0.323481E+00   0.423083E+01   0.000000E+00
     1     5    55  -0.100998E+01  -0.252246E+00   0.362043E+01   0.000000E+00
 
 
 SOLVING FOR HEAD 
                                                   Max.-Head-Change                         Max.-Flux-Residual
  Residual-Control   Outer-Iter.   Inner-Iter.     Column Row Layer    Maximum-Head-Change  Column Row Layer    Maximum-Flux-Residual          L2-NORM 
          0                 1           3             1    1     1      -0.5287248174E-01       1    5    1        -0.7667448137E-03      0.1113641773E-01
          0                 2           2             1    1     1       0.4629786814E-02       1    5    1         0.7667086956E-04      0.1076814747E-02
          0                 3           2             1    1     1      -0.3644089808E-03       1    4    1         0.7586756194E-05      0.1048354697E-03
          0                 4           1             1    1     1       0.2542240611E-04       1    4    1        -0.1007397060E-05      0.9484345941E-05
          0                 5           1             1    1     1      -0.1449711897E-05       2    4    1         0.9484736196E-07      0.7201030177E-06
          0                 6           1             1    1     1       0.7408840253E-07       2    4    1        -0.6814410369E-08      0.4661516634E-07

    ------------------------------------------------
       NWT REQUIRED            6 OUTER ITERATIONS 
       AND A TOTAL OF         10 INNER ITERATIONS.
    ------------------------------------------------

 NO OUTPUT CONTROL FOR STRESS PERIOD   44   TIME STEP   29
 
 WELLS WITH REDUCED PUMPING FOR STRESS PERIOD    44 TIME STEP    29
   LAY   ROW   COL         APPL.Q          ACT.Q        GW-HEAD       CELL-BOT
     1     3    50  -0.101001E+01  -0.322606E+00   0.422389E+01   0.000000E+00
     1     5    55  -0.101001E+01  -0.251673E+00   0.361559E+01   0.000000E+00
 
 
 SOLVING FOR HEAD 
                                                   Max.-Head-Change                         Max.-Flux-Residual
  Residual-Control   Outer-Iter.   Inner-Iter.     Column Row Layer    Maximum-Head-Change  Column Row Layer    Maximum-Flux-Residual          L2-NORM 
          0                 1           3             1    1     1      -0.5852717831E-01       1    5    1        -0.7719654950E-03      0.1126530675E-01
          0                 2           2             1    1     1       0.5115110669E-02       1    5    1         0.7719211148E-04      0.1088343248E-02
          0                 3           2             1    1     1      -0.4014036428E-03       3    4    1         0.7697632569E-05      0.1059828589E-03
          0                 4           1             1    1     1       0.2784753665E-04       1    4    1        -0.1022868830E-05      0.9605648121E-05
          0                 5           1             1    1     1      -0.1539464913E-05       2    4    1         0.9653824762E-07      0.7237312150E-06
          0                 6           1             1    1     1       0.7718863222E-07       2    4    1        -0.6905537475E-08      0.4667402499E-07

    ------------------------------------------------
       NWT REQUIRED            6 OUTER ITERATIONS 
       AND A TOTAL OF         10 INNER ITERATIONS.
    ------------------------------------------------

 NO OUTPUT CONTROL FOR STRESS PERIOD   44   TIME STEP   30
 
 WELLS WITH REDUCED PUMPING FOR STRESS PERIOD    44 TIME STEP    30
   LAY   ROW   COL         APPL.Q          ACT.Q        GW-HEAD       CELL-BOT
     1     3    50  -0.101014E+01  -0.321566E+00   0.421537E+01   0.000000E+00
     1     5    55  -0.101014E+01  -0.250940E+00   0.360920E+01   0.000000E+00
 



 STREAM LISTING     PERIOD     44   STEP       30

 LAYER ROW COL. STREAM  RCH.   FLOW INTO    STREAM     FLOW OUT OF   OVRLND.    DIRECT     STREAM      STREAM      STREAM     STREAM  STREAMBED   FLOW TO   CHNG. UNSAT. 
                SEG.NO.  NO.   STRM. RCH.    LOSS       STRM. RCH.   RUNOFF     PRECIP       ET         HEAD        DEPTH      WIDTH  CONDCTNC.   WAT. TAB.

   1    4    1     1     1    6.5100E+00  2.1034E-03   6.5079E+00  0.000E+00  0.000E+00  0.000E+00  1.41783E+02  1.933E+00  4.125E+00  8.645E-04  2.440E-03 -3.365E-04
   1    4    2     1     2    6.5079E+00  2.1029E-03   6.5058E+00  0.000E+00  0.000E+00  0.000E+00  1.41483E+02  1.933E+00  4.125E+00  8.644E-04  2.439E-03 -3.363E-04
   1    4    3     1     3    6.5058E+00  2.1024E-03   6.5037E+00  0.000E+00  0.000E+00  0.000E+00  1.41183E+02  1.933E+00  4.125E+00  8.643E-04  2.438E-03 -3.360E-04
   1    4    4     1     4    6.5037E+00  2.1018E-03   6.5016E+00  0.000E+00  0.000E+00  0.000E+00  1.40882E+02  1.932E+00  4.124E+00  8.642E-04  2.438E-03 -3.358E-04
   1    4    5     1     5    6.5016E+00  2.1013E-03   6.4995E+00  0.000E+00  0.000E+00  0.000E+00  1.40582E+02  1.932E+00  4.124E+00  8.641E-04  2.437E-03 -3.356E-04
   1    4    6     1     6    6.4995E+00  2.1008E-03   6.4974E+00  0.000E+00  0.000E+00  0.000E+00  1.40282E+02  1.932E+00  4.123E+00  8.640E-04  2.436E-03 -3.355E-04
   1    4    7     1     7    6.4974E+00  2.1002E-03   6.4953E+00  0.000E+00  0.000E+00  0.000E+00  1.39981E+02  1.931E+00  4.123E+00  8.639E-04  2.436E-03 -3.353E-04
   1    4    8     1     8    6.4953E+00  2.0997E-03   6.4932E+00  0.000E+00  0.000E+00  0.000E+00  1.39681E+02  1.931E+00  4.123E+00  8.637E-04  2.435E-03 -3.352E-04
   1    4    9     1     9    6.4932E+00  2.0992E-03   6.4911E+00  0.000E+00  0.000E+00  0.000E+00  1.39381E+02  1.931E+00  4.122E+00  8.636E-04  2.434E-03 -3.352E-04
   1    4   10     1    10    6.4911E+00  2.0986E-03   6.4890E+00  0.000E+00  0.000E+00  0.000E+00  1.39080E+02  1.930E+00  4.122E+00  8.635E-04  2.434E-03 -3.351E-04
   1    4   11     1    11    6.4890E+00  2.0981E-03   6.4869E+00  0.000E+00  0.000E+00  0.000E+00  1.38780E+02  1.930E+00  4.122E+00  8.634E-04  2.433E-03 -3.351E-04
   1    4   12     1    12    6.4869E+00  2.0976E-03   6.4848E+00  0.000E+00  0.000E+00  0.000E+00  1.38480E+02  1.930E+00  4.121E+00  8.633E-04  2.433E-03 -3.351E-04
   1    4   13     1    13    6.4848E+00  2.0971E-03   6.4827E+00  0.000E+00  0.000E+00  0.000E+00  1.38179E+02  1.929E+00  4.121E+00  8.632E-04  2.432E-03 -3.352E-04
   1    4   14     1    14    6.4827E+00  2.0965E-03   6.4806E+00  0.000E+00  0.000E+00  0.000E+00  1.37879E+02  1.929E+00  4.120E+00  8.631E-04  2.432E-03 -3.353E-04
   1    4   15     1    15    6.4806E+00  2.0960E-03   6.4785E+00  0.000E+00  0.000E+00  0.000E+00  1.37579E+02  1.929E+00  4.120E+00  8.630E-04  2.431E-03 -3.354E-04
   1    4   16     1    16    6.4785E+00  2.0955E-03   6.4764E+00  0.000E+00  0.000E+00  0.000E+00  1.37278E+02  1.928E+00  4.120E+00  8.629E-04  2.431E-03 -3.356E-04
   1    4   17     1    17    6.4764E+00  2.0949E-03   6.4743E+00  0.000E+00  0.000E+00  0.000E+00  1.36978E+02  1.928E+00  4.119E+00  8.628E-04  2.431E-03 -3.358E-04
   1    4   18     1    18    6.4743E+00  2.0944E-03   6.4722E+00  0.000E+00  0.000E+00  0.000E+00  1.36678E+02  1.928E+00  4.119E+00  8.627E-04  2.430E-03 -3.360E-04
   1    4   19     1    19    6.4722E+00  2.0939E-03   6.4701E+00  0.000E+00  0.000E+00  0.000E+00  1.36377E+02  1.927E+00  4.119E+00  8.626E-04  2.435E-03 -3.413E-04
   1    4   20     1    20    6.4701E+00  2.0933E-03   6.4680E+00  0.000E+00  0.000E+00  0.000E+00  1.36077E+02  1.927E+00  4.118E+00  8.625E-04  2.441E-03 -3.475E-04
   1    4   21     1    21    6.4680E+00  2.0928E-03   6.4659E+00  0.000E+00  0.000E+00  0.000E+00  1.35777E+02  1.927E+00  4.118E+00  8.624E-04  2.447E-03 -3.543E-04
   1    4   22     1    22    6.4659E+00  2.0923E-03   6.4638E+00  0.000E+00  0.000E+00  0.000E+00  1.35476E+02  1.926E+00  4.117E+00  8.623E-04  2.454E-03 -3.617E-04
   1    4   23     1    23    6.4638E+00  2.0917E-03   6.4618E+00  0.000E+00  0.000E+00  0.000E+00  1.35176E+02  1.926E+00  4.117E+00  8.622E-04  2.461E-03 -3.696E-04
   1    4   24     1    24    6.4618E+00  2.0912E-03   6.4597E+00  0.000E+00  0.000E+00  0.000E+00  1.34876E+02  1.926E+00  4.117E+00  8.621E-04  2.469E-03 -3.782E-04
   1    4   25     1    25    6.4597E+00  2.0907E-03   6.4576E+00  0.000E+00  0.000E+00  0.000E+00  1.34575E+02  1.925E+00  4.116E+00  8.620E-04  2.478E-03 -3.874E-04
   1    4   26     1    26    6.4576E+00  2.0902E-03   6.4555E+00  0.000E+00  0.000E+00  0.000E+00  1.34275E+02  1.925E+00  4.116E+00  8.619E-04  2.487E-03 -3.973E-04
   1    4   27     1    27    6.4555E+00  2.0896E-03   6.4534E+00  0.000E+00  0.000E+00  0.000E+00  1.33975E+02  1.925E+00  4.115E+00  8.618E-04  2.496E-03 -4.067E-04
   1    4   28     1    28    6.4534E+00  2.0891E-03   6.4513E+00  0.000E+00  0.000E+00  0.000E+00  1.33675E+02  1.925E+00  4.115E+00  8.617E-04  2.497E-03 -4.075E-04
   1    4   29     1    29    6.4513E+00  2.0886E-03   6.4492E+00  0.000E+00  0.000E+00  0.000E+00  1.33374E+02  1.924E+00  4.115E+00  8.615E-04  2.497E-03 -4.084E-04
   1    4   30     1    30    6.4492E+00  2.0880E-03   6.4471E+00  0.000E+00  0.000E+00  0.000E+00  1.33074E+02  1.924E+00  4.114E+00  8.614E-04  2.506E-03 -4.184E-04
   1    4   31     1    31    6.4471E+00  2.0875E-03   6.4450E+00  0.000E+00  0.000E+00  0.000E+00  1.32774E+02  1.924E+00  4.114E+00  8.613E-04  2.517E-03 -4.298E-04
   1    4   32     1    32    6.4450E+00  2.0870E-03   6.4430E+00  0.000E+00  0.000E+00  0.000E+00  1.32473E+02  1.923E+00  4.114E+00  8.612E-04  2.529E-03 -4.420E-04
   1    4   33     1    33    6.4430E+00  2.0864E-03   6.4409E+00  0.000E+00  0.000E+00  0.000E+00  1.32173E+02  1.923E+00  4.113E+00  8.611E-04  2.541E-03 -4.550E-04
   1    4   34     1    34    6.4409E+00  2.0859E-03   6.4388E+00  0.000E+00  0.000E+00  0.000E+00  1.31873E+02  1.923E+00  4.113E+00  8.610E-04  2.555E-03 -4.688E-04
   1    4   35     1    35    6.4388E+00  2.0854E-03   6.4367E+00  0.000E+00  0.000E+00  0.000E+00  1.31572E+02  1.922E+00  4.112E+00  8.609E-04  2.565E-03 -4.798E-04
   1    4   36     1    36    6.4367E+00  2.0849E-03   6.4346E+00  0.000E+00  0.000E+00  0.000E+00  1.31272E+02  1.922E+00  4.112E+00  8.608E-04  2.577E-03 -4.925E-04
   1    4   37     1    37    6.4346E+00  2.0843E-03   6.4325E+00  0.000E+00  0.000E+00  0.000E+00  1.30972E+02  1.922E+00  4.112E+00  8.607E-04  2.590E-03 -5.059E-04
   1    4   38     1    38    6.4325E+00  2.0838E-03   6.4304E+00  0.000E+00  0.000E+00  0.000E+00  1.30671E+02  1.921E+00  4.111E+00  8.606E-04  2.604E-03 -5.206E-04
   1    4   39     1    39    6.4304E+00  2.0833E-03   6.4284E+00  0.000E+00  0.000E+00  0.000E+00  1.30371E+02  1.921E+00  4.111E+00  8.605E-04  2.477E-03 -3.937E-04
   1    4   40     1    40    6.4284E+00  2.0827E-03   6.4263E+00  0.000E+00  0.000E+00  0.000E+00  1.30071E+02  1.921E+00  4.110E+00  8.604E-04  2.493E-03 -4.105E-04
   1    4   41     1    41    6.4263E+00  2.0822E-03   6.4242E+00  0.000E+00  0.000E+00  0.000E+00  1.29770E+02  1.920E+00  4.110E+00  8.603E-04  2.508E-03 -4.254E-04
   1    4   42     1    42    6.4242E+00  2.0817E-03   6.4221E+00  0.000E+00  0.000E+00  0.000E+00  1.29470E+02  1.920E+00  4.110E+00  8.602E-04  2.529E-03 -4.471E-04
   1    4   43     1    43    6.4221E+00  2.0812E-03   6.4200E+00  0.000E+00  0.000E+00  0.000E+00  1.29170E+02  1.920E+00  4.109E+00  8.601E-04  2.543E-03 -4.616E-04
   1    4   44     1    44    6.4200E+00  2.0806E-03   6.4180E+00  0.000E+00  0.000E+00  0.000E+00  1.28869E+02  1.919E+00  4.109E+00  8.600E-04  2.552E-03 -4.716E-04
   1    4   45     1    45    6.4180E+00  2.0801E-03   6.4159E+00  0.000E+00  0.000E+00  0.000E+00  1.28569E+02  1.919E+00  4.109E+00  8.599E-04  2.554E-03 -4.737E-04
   1    4   46     1    46    6.4159E+00  2.0796E-03   6.4138E+00  0.000E+00  0.000E+00  0.000E+00  1.28269E+02  1.919E+00  4.108E+00  8.598E-04  2.553E-03 -4.729E-04
   1    4   47     1    47    6.4138E+00  2.0790E-03   6.4117E+00  0.000E+00  0.000E+00  0.000E+00  1.27968E+02  1.918E+00  4.108E+00  8.597E-04  2.551E-03 -4.720E-04
   1    4   48     1    48    6.4117E+00  2.0785E-03   6.4096E+00  0.000E+00  0.000E+00  0.000E+00  1.27668E+02  1.918E+00  4.107E+00  8.596E-04  2.550E-03 -4.710E-04
   1    4   49     1    49    6.4096E+00  2.0780E-03   6.4076E+00  0.000E+00  0.000E+00  0.000E+00  1.27368E+02  1.918E+00  4.107E+00  8.595E-04  2.556E-03 -4.783E-04
   1    4   50     1    50    6.4076E+00  2.0775E-03   6.4055E+00  0.000E+00  0.000E+00  0.000E+00  1.27067E+02  1.917E+00  4.107E+00  8.594E-04  2.676E-03 -5.988E-04
   1    4   51     1    51    6.4055E+00  2.0769E-03   6.4034E+00  0.000E+00  0.000E+00  0.000E+00  1.26767E+02  1.917E+00  4.106E+00  8.592E-04  2.633E-03 -5.562E-04
   1    4   52     1    52    6.4034E+00  2.0764E-03   6.4013E+00  0.000E+00  0.000E+00  0.000E+00  1.26467E+02  1.917E+00  4.106E+00  8.591E-04  2.619E-03 -5.421E-04
   1    4   53     1    53    6.4013E+00  2.0759E-03   6.3992E+00  0.000E+00  0.000E+00  0.000E+00  1.26167E+02  1.917E+00  4.105E+00  8.590E-04  2.619E-03 -5.433E-04
   1    4   54     1    54    6.3992E+00  2.0754E-03   6.3972E+00  0.000E+00  0.000E+00  0.000E+00  1.25866E+02  1.916E+00  4.105E+00  8.589E-04  2.633E-03 -5.580E-04
   1    4   55     1    55    6.3972E+00  2.0748E-03   6.3951E+00  0.000E+00  0.000E+00  0.000E+00  1.25566E+02  1.916E+00  4.105E+00  8.588E-04  2.677E-03 -6.026E-04
   1    4   56     1    56    6.3951E+00  2.0743E-03   6.3930E+00  0.000E+00  0.000E+00  0.000E+00  1.25266E+02  1.916E+00  4.104E+00  8.587E-04  2.561E-03 -4.869E-04
   1    4   57     1    57    6.3930E+00  2.0738E-03   6.3910E+00  0.000E+00  0.000E+00  0.000E+00  1.24965E+02  1.915E+00  4.104E+00  8.586E-04  2.553E-03 -4.789E-04
   1    4   58     1    58    6.3910E+00  2.0732E-03   6.3889E+00  0.000E+00  0.000E+00  0.000E+00  1.24665E+02  1.915E+00  4.104E+00  8.585E-04  2.555E-03 -4.813E-04
   1    4   59     1    59    6.3889E+00  2.0727E-03   6.3868E+00  0.000E+00  0.000E+00  0.000E+00  1.24365E+02  1.915E+00  4.103E+00  8.584E-04  2.556E-03 -4.832E-04
   1    4   60     1    60    6.3868E+00  2.0722E-03   6.3847E+00  0.000E+00  0.000E+00  0.000E+00  1.24064E+02  1.914E+00  4.103E+00  8.583E-04  2.557E-03 -4.846E-04
   1    4   61     1    61    6.3847E+00  2.0717E-03   6.3827E+00  0.000E+00  0.000E+00  0.000E+00  1.23764E+02  1.914E+00  4.102E+00  8.582E-04  2.557E-03 -4.855E-04
   1    4   62     1    62    6.3827E+00  2.0711E-03   6.3806E+00  0.000E+00  0.000E+00  0.000E+00  1.23464E+02  1.914E+00  4.102E+00  8.581E-04  2.550E-03 -4.787E-04
   1    4   63     1    63    6.3806E+00  2.0706E-03   6.3785E+00  0.000E+00  0.000E+00  0.000E+00  1.23163E+02  1.913E+00  4.102E+00  8.580E-04  2.540E-03 -4.691E-04
   1    4   64     1    64    6.3785E+00  2.0701E-03   6.3764E+00  0.000E+00  0.000E+00  0.000E+00  1.22863E+02  1.913E+00  4.101E+00  8.579E-04  2.519E-03 -4.494E-04
   1    4   65     1    65    6.3764E+00  2.0696E-03   6.3744E+00  0.000E+00  0.000E+00  0.000E+00  1.22563E+02  1.913E+00  4.101E+00  8.578E-04  2.499E-03 -4.295E-04
   1    4   66     1    66    6.3744E+00  2.0690E-03   6.3723E+00  0.000E+00  0.000E+00  0.000E+00  1.22262E+02  1.912E+00  4.101E+00  8.577E-04  2.486E-03 -4.172E-04
   1    4   67     1    67    6.3723E+00  2.0685E-03   6.3702E+00  0.000E+00  0.000E+00  0.000E+00  1.21962E+02  1.912E+00  4.100E+00  8.576E-04  2.602E-03 -5.340E-04
   1    4   68     1    68    6.3702E+00  2.0680E-03   6.3682E+00  0.000E+00  0.000E+00  0.000E+00  1.21662E+02  1.912E+00  4.100E+00  8.575E-04  2.592E-03 -5.245E-04
   1    4   69     1    69    6.3682E+00  2.0675E-03   6.3661E+00  0.000E+00  0.000E+00  0.000E+00  1.21361E+02  1.911E+00  4.099E+00  8.574E-04  2.577E-03 -5.096E-04
   1    4   70     1    70    6.3661E+00  2.0669E-03   6.3640E+00  0.000E+00  0.000E+00  0.000E+00  1.21061E+02  1.911E+00  4.099E+00  8.573E-04  2.562E-03 -4.955E-04
   1    4   71     1    71    6.3640E+00  2.0664E-03   6.3620E+00  0.000E+00  0.000E+00  0.000E+00  1.20761E+02  1.911E+00  4.099E+00  8.572E-04  2.553E-03 -4.863E-04
   1    4   72     1    72    6.3620E+00  2.0659E-03   6.3599E+00  0.000E+00  0.000E+00  0.000E+00  1.20460E+02  1.910E+00  4.098E+00  8.571E-04  2.536E-03 -4.703E-04
   1    4   73     1    73    6.3599E+00  2.0654E-03   6.3578E+00  0.000E+00  0.000E+00  0.000E+00  1.20160E+02  1.910E+00  4.098E+00  8.570E-04  2.520E-03 -4.550E-04
   1    4   74     1    74    6.3578E+00  2.0648E-03   6.3558E+00  0.000E+00  0.000E+00  0.000E+00  1.19860E+02  1.910E+00  4.097E+00  8.568E-04  2.505E-03 -4.403E-04
   1    4   75     1    75    6.3558E+00  2.0643E-03   6.3537E+00  0.000E+00  0.000E+00  0.000E+00  1.19559E+02  1.909E+00  4.097E+00  8.567E-04  2.492E-03 -4.272E-04
   1    4   76     1    76    6.3537E+00  2.0638E-03   6.3516E+00  0.000E+00  0.000E+00  0.000E+00  1.19259E+02  1.909E+00  4.097E+00  8.566E-04  2.491E-03 -4.272E-04
   1    4   77     1    77    6.3516E+00  2.0633E-03   6.3496E+00  0.000E+00  0.000E+00  0.000E+00  1.18959E+02  1.909E+00  4.096E+00  8.565E-04  2.488E-03 -4.244E-04
   1    4   78     1    78    6.3496E+00  2.0627E-03   6.3475E+00  0.000E+00  0.000E+00  0.000E+00  1.18659E+02  1.909E+00  4.096E+00  8.564E-04  2.472E-03 -4.093E-04
   1    4   79     1    79    6.3475E+00  2.0622E-03   6.3455E+00  0.000E+00  0.000E+00  0.000E+00  1.18358E+02  1.908E+00  4.096E+00  8.563E-04  2.457E-03 -3.947E-04
   1    4   80     1    80    6.3455E+00  2.0617E-03   6.3434E+00  0.000E+00  0.000E+00  0.000E+00  1.18058E+02  1.908E+00  4.095E+00  8.562E-04  2.442E-03 -3.804E-04
   1    4   81     1    81    6.3434E+00  2.0612E-03   6.3413E+00  0.000E+00  0.000E+00  0.000E+00  1.17758E+02  1.908E+00  4.095E+00  8.561E-04  2.428E-03 -3.665E-04
   1    4   82     1    82    6.3413E+00  2.0606E-03   6.3393E+00  0.000E+00  0.000E+00  0.000E+00  1.17457E+02  1.907E+00  4.094E+00  8.560E-04  2.421E-03 -3.607E-04
   1    4   83     1    83    6.3393E+00  2.0601E-03   6.3372E+00  0.000E+00  0.000E+00  0.000E+00  1.17157E+02  1.907E+00  4.094E+00  8.559E-04  2.421E-03 -3.605E-04
   1    4   84     1    84    6.3372E+00  2.0596E-03   6.3352E+00  0.000E+00  0.000E+00  0.000E+00  1.16857E+02  1.907E+00  4.094E+00  8.558E-04  2.366E-03 -3.066E-04
   1    4   85     1    85    6.3352E+00  2.0591E-03   6.3331E+00  0.000E+00  0.000E+00  0.000E+00  1.16556E+02  1.906E+00  4.093E+00  8.557E-04  2.335E-03 -2.757E-04
   1    4   86     1    86    6.3331E+00  2.0586E-03   6.3310E+00  0.000E+00  0.000E+00  0.000E+00  1.16256E+02  1.906E+00  4.093E+00  8.556E-04  2.326E-03 -2.675E-04
   1    4   87     1    87    6.3310E+00  2.0580E-03   6.3290E+00  0.000E+00  0.000E+00  0.000E+00  1.15956E+02  1.906E+00  4.092E+00  8.555E-04  2.312E-03 -2.540E-04
   1    4   88     1    88    6.3290E+00  2.0575E-03   6.3269E+00  0.000E+00  0.000E+00  0.000E+00  1.15655E+02  1.905E+00  4.092E+00  8.554E-04  2.298E-03 -2.409E-04
   1    4   89     1    89    6.3269E+00  2.0570E-03   6.3249E+00  0.000E+00  0.000E+00  0.000E+00  1.15355E+02  1.905E+00  4.092E+00  8.553E-04  2.285E-03 -2.281E-04
   1    4   90     1    90    6.3249E+00  2.0565E-03   6.3228E+00  0.000E+00  0.000E+00  0.000E+00  1.15055E+02  1.905E+00  4.091E+00  8.552E-04  2.272E-03 -2.157E-04
   1    4   91     1    91    6.3228E+00  2.0559E-03   6.3208E+00  0.000E+00  0.000E+00  0.000E+00  1.14754E+02  1.904E+00  4.091E+00  8.551E-04  2.258E-03 -2.021E-04
   1    4   92     1    92    6.3208E+00  2.0554E-03   6.3187E+00  0.000E+00  0.000E+00  0.000E+00  1.14454E+02  1.904E+00  4.091E+00  8.550E-04  2.258E-03 -2.023E-04
   1    4   93     1    93    6.3187E+00  2.0549E-03   6.3166E+00  0.000E+00  0.000E+00  0.000E+00  1.14154E+02  1.904E+00  4.090E+00  8.549E-04  2.258E-03 -2.026E-04
   1    4   94     1    94    6.3166E+00  2.0544E-03   6.3146E+00  0.000E+00  0.000E+00  0.000E+00  1.13853E+02  1.903E+00  4.090E+00  8.548E-04  2.257E-03 -2.031E-04
   1    4   95     1    95    6.3146E+00  2.0538E-03   6.3125E+00  0.000E+00  0.000E+00  0.000E+00  1.13553E+02  1.903E+00  4.089E+00  8.547E-04  2.257E-03 -2.036E-04
   1    4   96     1    96    6.3125E+00  2.0533E-03   6.3105E+00  0.000E+00  0.000E+00  0.000E+00  1.13253E+02  1.903E+00  4.089E+00  8.546E-04  2.258E-03 -2.043E-04
   1    4   97     1    97    6.3105E+00  2.0528E-03   6.3084E+00  0.000E+00  0.000E+00  0.000E+00  1.12952E+02  1.902E+00  4.089E+00  8.545E-04  2.258E-03 -2.051E-04
   1    4   98     1    98    6.3084E+00  2.0523E-03   6.3064E+00  0.000E+00  0.000E+00  0.000E+00  1.12652E+02  1.902E+00  4.088E+00  8.544E-04  2.248E-03 -1.962E-04
   1    4   99     1    99    6.3064E+00  2.0518E-03   6.3043E+00  0.000E+00  0.000E+00  0.000E+00  1.12352E+02  1.902E+00  4.088E+00  8.542E-04  2.238E-03 -1.861E-04
   1    4  100     1   100    6.3043E+00  2.0512E-03   6.3023E+00  0.000E+00  0.000E+00  0.000E+00  1.12052E+02  1.902E+00  4.088E+00  8.541E-04  2.228E-03 -1.767E-04



1
  VOLUMETRIC BUDGET FOR UNSATURATED ZONE BENEATH STREAMS AT END OF TIME STEP    30 STRESS PERIOD  44
  ------------------------------------------------------------------------------------------------

    CUMULATIVE VOLUMES             L**3    RATES FOR THIS TIME STEP         L**3/T
    ------------------                     ------------------------


          STREAM LOSS =     34524552.0000            STREAM LOSS =            0.2077
    CHANGE IN STORAGE =      1736964.5000      CHANGE IN STORAGE =       -3.9173E-02
       RECHARGE TO GW =     32795258.0000         RECHARGE TO GW =            0.2469

             TOTAL IN =     34524552.0000               TOTAL IN =            0.2469

            TOTAL OUT =     34532224.0000              TOTAL OUT =            0.2469

             IN - OUT =        -7672.0000               IN - OUT =       -1.4007E-06

  PERCENT DISCREPANCY =           -0.01      PERCENT DISCREPANCY =            -0.00



1
  VOLUMETRIC BUDGET FOR ENTIRE MODEL AT END OF TIME STEP   30, STRESS PERIOD  44
  ------------------------------------------------------------------------------

     CUMULATIVE VOLUMES      L**3       RATES FOR THIS TIME STEP      L**3/T
     ------------------                 ------------------------

           IN:                                      IN:
           ---                                      ---
             STORAGE     =   113309744.0000               STORAGE     =           0.2458
       CONSTANT HEAD     =           0.0000         CONSTANT HEAD     =           0.0000
               WELLS     =           0.0000                 WELLS     =           0.0000
     HEAD DEP BOUNDS     =     2689113.5000       HEAD DEP BOUNDS     =       7.9797E-02
      STREAM LEAKAGE     =    32794926.0000        STREAM LEAKAGE     =           0.2469

                TOTAL IN =   148793776.0000                  TOTAL IN =           0.5725

          OUT:                                     OUT:
          ----                                     ----
             STORAGE     =     3634496.2500               STORAGE     =           0.0000
       CONSTANT HEAD     =           0.0000         CONSTANT HEAD     =           0.0000
               WELLS     =   128773400.0000                 WELLS     =           0.5725
     HEAD DEP BOUNDS     =    16385952.0000       HEAD DEP BOUNDS     =           0.0000
      STREAM LEAKAGE     =           0.0000        STREAM LEAKAGE     =           0.0000

               TOTAL OUT =   148793856.0000                 TOTAL OUT =           0.5725

                IN - OUT =         -80.0000                  IN - OUT =           0.0000

     PERCENT DISCREPANCY =          -0.00         PERCENT DISCREPANCY =           0.00






         TIME SUMMARY AT END OF TIME STEP   30 IN STRESS PERIOD   44
                    SECONDS     MINUTES      HOURS       DAYS        YEARS
                    -----------------------------------------------------------
   TIME STEP LENGTH 2.49961E+05  4166.0      69.434      2.8931     7.92080E-03
 STRESS PERIOD TIME 2.59200E+06  43200.      720.00      30.000     8.21355E-02
         TOTAL TIME 1.14048E+08 1.90080E+06  31680.      1320.0      3.6140    
1
1
                            STRESS PERIOD NO.   45, LENGTH =   2592000.    
                            -----------------------------------------------

                              NUMBER OF TIME STEPS =    30

                               MULTIPLIER FOR DELT =     1.100

                            INITIAL TIME STEP SIZE =   15757.40    

 REUSING NON-PARAMETER WELLS FROM LAST STRESS PERIOD

      1 WELL 

 REUSING NON-PARAMETER GHB CELLS FROM LAST STRESS PERIOD

      7 GHB CELLS



 CLASSIFICATION & COUNT OF STREAM SEGMENTS BASED ON SOURCE OF INFLOW:

                HEADWATER     DIVERSION     RECEIVES TRIBUTARY FLOW
                ---------     ---------     -----------------------
                     1              0               0



                    INPUT DATA FOR EACH STREAM SEGMENT
 ---------------------------------------------------------------------------------------------

 SEGMENT    SEG.     INFLOW   OVERLAND   STREAM    STREAM   ICALC  OUTFLOW  DIVERSION PRIORITY
    NO.    LENGTH     RATE     RUNOFF      ET       PPT.    METH.  TO SEG.  FROM SEG.    NO.

      1  2.000E+04 3.430E+00 0.000E+00 0.000E+00 0.000E+00    2        0        0        0


         STREAMBED PROPERTIES AND STREAM DIMENSIONS

 SEGMENT     BED HYD. COND.      BED THICKNESS     ELEV.-TOP OF BED     WIDTH OF STREAM     DEPTH OF STREAM    STREAM ROUGHNESS
    No.     UPPER     LOWER     UPPER     LOWER     UPPER     LOWER     UPPER     LOWER     UPPER     LOWER   CHANNEL      BANK

     1  3.500E-07 3.500E-07                                                                                 3.000E-02 4.000E-02

  EIGHT POINT CROSS-SECTION DATA FOR SEGMENTS WITH ICALC = 2
    X VALUES X VALUES START FROM LEFT SIDE LOOKING DOWNSTREAM

     SEGMENT NO.        X1        X2        X3        X4        X5        X6        X7        X8
            1      0.000E+00 2.000E+00 4.000E+00 6.000E+00 8.000E+00 1.000E+01 1.200E+01 1.400E+01

    Z VALUES ARE RELATIVE TO STREAMBED ELEVATION

     SEGMENT NO.          Z1        Z2        Z3        Z4        Z5        Z6        Z7        Z8
            1      6.000E+00 4.500E+00 3.500E+00 0.000E+00 3.000E-01 3.500E+00 4.500E+00 6.000E+00



 
 SOLVING FOR HEAD 
                                                   Max.-Head-Change                         Max.-Flux-Residual
  Residual-Control   Outer-Iter.   Inner-Iter.     Column Row Layer    Maximum-Head-Change  Column Row Layer    Maximum-Flux-Residual          L2-NORM 
          0                 1           2            50    3     1      -0.3263527707E+00      50    3    1        -0.1338538616E+00      0.1701598592E+00
          0                 2           2            50    3     1       0.3016776423E-01      50    3    1         0.1237983995E-01      0.1567769916E-01
          0                 3           2            50    3     1      -0.2705526807E-02      50    3    1        -0.1123806835E-02      0.1424232729E-02
          0                 4           2            50    3     1       0.2144896150E-03      50    3    1         0.8994074299E-04      0.1140060626E-03
          0                 5           1            50    3     1      -0.1494152838E-04      50    3    1        -0.6323225788E-05      0.8015598113E-05
          0                 6           1            50    3     1       0.8971875777E-06      50    3    1         0.3831601506E-06      0.4857158073E-06

    ------------------------------------------------
       NWT REQUIRED            6 OUTER ITERATIONS 
       AND A TOTAL OF         10 INNER ITERATIONS.
    ------------------------------------------------

 NO OUTPUT CONTROL FOR STRESS PERIOD   45   TIME STEP    1
 
 WELLS WITH REDUCED PUMPING FOR STRESS PERIOD    45 TIME STEP     1
   LAY   ROW   COL         APPL.Q          ACT.Q        GW-HEAD       CELL-BOT
     1     3    50  -0.143024E+01  -0.402389E+00   0.391668E+01   0.000000E+00
     1     5    55  -0.143024E+01  -0.315101E+00   0.336788E+01   0.000000E+00
 
 
 SOLVING FOR HEAD 
                                                   Max.-Head-Change                         Max.-Flux-Residual
  Residual-Control   Outer-Iter.   Inner-Iter.     Column Row Layer    Maximum-Head-Change  Column Row Layer    Maximum-Flux-Residual          L2-NORM 
          0                 1           2            50    3     1      -0.1803036593E+00      50    3    1        -0.6824064151E-01      0.8885211103E-01
          0                 2           2            50    3     1       0.1685445503E-01      50    3    1         0.6455691739E-02      0.8374903315E-02
          0                 3           2            50    3     1      -0.1502856332E-02      50    3    1        -0.5843664321E-03      0.7591401565E-03
          0                 4           2            50    3     1       0.1190560796E-03      50    3    1         0.4678150804E-04      0.6081836267E-04
          0                 5           1            50    3     1      -0.8291585898E-05      50    3    1        -0.3288858937E-05      0.4276745155E-05
          0                 6           1            50    3     1       0.4978716862E-06      50    3    1         0.1992909976E-06      0.2591676261E-06

    ------------------------------------------------
       NWT REQUIRED            6 OUTER ITERATIONS 
       AND A TOTAL OF         10 INNER ITERATIONS.
    ------------------------------------------------

 NO OUTPUT CONTROL FOR STRESS PERIOD   45   TIME STEP    2
 
 WELLS WITH REDUCED PUMPING FOR STRESS PERIOD    45 TIME STEP     2
   LAY   ROW   COL         APPL.Q          ACT.Q        GW-HEAD       CELL-BOT
     1     3    50  -0.143024E+01  -0.373956E+00   0.375183E+01   0.000000E+00
     1     5    55  -0.143024E+01  -0.292845E+00   0.323005E+01   0.000000E+00
 
 
 SOLVING FOR HEAD 
                                                   Max.-Head-Change                         Max.-Flux-Residual
  Residual-Control   Outer-Iter.   Inner-Iter.     Column Row Layer    Maximum-Head-Change  Column Row Layer    Maximum-Flux-Residual          L2-NORM 
          0                 1           2            50    3     1      -0.9851175662E-01      50    3    1        -0.3412708287E-01      0.4716694458E-01
          0                 2           2            50    3     1       0.9249999136E-02      50    3    1         0.3291543935E-02      0.4503695389E-02
          0                 3           2            50    3     1      -0.8193180877E-03      50    3    1        -0.2973200718E-03      0.4078506957E-03
          0                 4           1            50    3     1       0.6481335387E-04      50    3    1         0.2380701609E-04      0.3273351431E-04
          0                 5           1            50    3     1      -0.4511971082E-05      50    3    1        -0.1673659460E-05      0.2303375424E-05
          0                 6           1            50    3     1       0.2709080998E-06      50    3    1         0.1014167392E-06      0.1396138843E-06

    ------------------------------------------------
       NWT REQUIRED            6 OUTER ITERATIONS 
       AND A TOTAL OF          9 INNER ITERATIONS.
    ------------------------------------------------

 NO OUTPUT CONTROL FOR STRESS PERIOD   45   TIME STEP    3
 
 WELLS WITH REDUCED PUMPING FOR STRESS PERIOD    45 TIME STEP     3
   LAY   ROW   COL         APPL.Q          ACT.Q        GW-HEAD       CELL-BOT
     1     3    50  -0.142982E+01  -0.358578E+00   0.366181E+01   0.000000E+00
     1     5    55  -0.142982E+01  -0.280465E+00   0.315239E+01   0.000000E+00
 
 
 SOLVING FOR HEAD 
                                                   Max.-Head-Change                         Max.-Flux-Residual
  Residual-Control   Outer-Iter.   Inner-Iter.     Column Row Layer    Maximum-Head-Change  Column Row Layer    Maximum-Flux-Residual          L2-NORM 
          0                 1           2            50    3     1      -0.5471471276E-01      50    3    1        -0.1709299560E-01      0.2749591765E-01
          0                 2           2            50    3     1       0.5110580270E-02      50    3    1         0.1670562300E-02      0.2622395996E-02
          0                 3           2            50    3     1      -0.4489528431E-03      50    3    1        -0.1506931266E-03      0.2379716214E-03
          0                 4           1            50    3     1       0.3542627258E-04      50    3    1         0.1206793623E-04      0.1918553393E-04
          0                 5           1            50    3     1      -0.2464337210E-05      50    3    1        -0.8483751593E-06      0.1353055615E-05
          0                 6           1            50    3     1       0.1479449772E-06      50    3    1         0.5140778878E-07      0.8208177479E-07

    ------------------------------------------------
       NWT REQUIRED            6 OUTER ITERATIONS 
       AND A TOTAL OF          9 INNER ITERATIONS.
    ------------------------------------------------

 NO OUTPUT CONTROL FOR STRESS PERIOD   45   TIME STEP    4
 
 WELLS WITH REDUCED PUMPING FOR STRESS PERIOD    45 TIME STEP     4
   LAY   ROW   COL         APPL.Q          ACT.Q        GW-HEAD       CELL-BOT
     1     3    50  -0.143020E+01  -0.350270E+00   0.361179E+01   0.000000E+00
     1     5    55  -0.143020E+01  -0.273627E+00   0.310823E+01   0.000000E+00
 
 
 SOLVING FOR HEAD 
                                                   Max.-Head-Change                         Max.-Flux-Residual
  Residual-Control   Outer-Iter.   Inner-Iter.     Column Row Layer    Maximum-Head-Change  Column Row Layer    Maximum-Flux-Residual          L2-NORM 
          0                 1           2            50    4     1      -0.3239551247E-01      50    3    1        -0.8561617295E-02      0.1897421703E-01
          0                 2           2            50    2     1       0.3050778064E-02      50    3    1         0.8441804197E-03      0.1801352065E-02
          0                 3           2            50    2     1      -0.2715551937E-03      50    3    1        -0.7608272993E-04      0.1645753948E-03
          0                 4           1            50    2     1       0.2153793960E-04      50    3    1         0.6093444595E-05      0.1337621228E-04
          0                 5           1            50    2     1      -0.1500066189E-05      50    3    1        -0.4283615593E-06      0.9476663059E-06
          0                 6           1            50    2     1       0.9007153716E-07      50    3    1         0.2595658968E-07      0.5760236415E-07

    ------------------------------------------------
       NWT REQUIRED            6 OUTER ITERATIONS 
       AND A TOTAL OF          9 INNER ITERATIONS.
    ------------------------------------------------

 NO OUTPUT CONTROL FOR STRESS PERIOD   45   TIME STEP    5
 
 WELLS WITH REDUCED PUMPING FOR STRESS PERIOD    45 TIME STEP     5
   LAY   ROW   COL         APPL.Q          ACT.Q        GW-HEAD       CELL-BOT
     1     3    50  -0.143010E+01  -0.345475E+00   0.358323E+01   0.000000E+00
     1     5    55  -0.143010E+01  -0.269639E+00   0.308270E+01   0.000000E+00
 
 
 SOLVING FOR HEAD 
                                                   Max.-Head-Change                         Max.-Flux-Residual
  Residual-Control   Outer-Iter.   Inner-Iter.     Column Row Layer    Maximum-Head-Change  Column Row Layer    Maximum-Flux-Residual          L2-NORM 
          0                 1           2            50    2     1      -0.2831605459E-01      50    3    1        -0.4413605700E-02      0.1566370543E-01
          0                 2           2            50    2     1       0.2786150839E-02      50    2    1         0.4390308079E-03      0.1493762877E-02
          0                 3           2            50    2     1      -0.2479878288E-03      50    2    1        -0.3952273280E-04      0.1376211252E-03
          0                 4           1            50    2     1       0.1966717116E-04      50    2    1         0.3165690405E-05      0.1127720013E-04
          0                 5           1            50    2     1      -0.1369714918E-05      50    2    1        -0.2225454807E-06      0.8030724940E-06
          0                 6           1            50    2     1       0.8224333026E-07      50    2    1         0.1348537375E-07      0.4893800880E-07

    ------------------------------------------------
       NWT REQUIRED            6 OUTER ITERATIONS 
       AND A TOTAL OF          9 INNER ITERATIONS.
    ------------------------------------------------

 NO OUTPUT CONTROL FOR STRESS PERIOD   45   TIME STEP    6
 
 WELLS WITH REDUCED PUMPING FOR STRESS PERIOD    45 TIME STEP     6
   LAY   ROW   COL         APPL.Q          ACT.Q        GW-HEAD       CELL-BOT
     1     3    50  -0.142992E+01  -0.342541E+00   0.356587E+01   0.000000E+00
     1     5    55  -0.142992E+01  -0.267207E+00   0.306721E+01   0.000000E+00
 
 
 SOLVING FOR HEAD 
                                                   Max.-Head-Change                         Max.-Flux-Residual
  Residual-Control   Outer-Iter.   Inner-Iter.     Column Row Layer    Maximum-Head-Change  Column Row Layer    Maximum-Flux-Residual          L2-NORM 
          0                 1           2            50    2     1      -0.2561086942E-01      50    2    1        -0.3654234556E-02      0.1432682549E-01
          0                 2           2            50    2     1       0.2519386913E-02      50    2    1         0.3644671281E-03      0.1377567369E-02
          0                 3           2            50    2     1      -0.2242128812E-03      50    2    1        -0.3281184986E-04      0.1277606171E-03
          0                 4           1            50    2     1       0.1778025351E-04      50    2    1         0.2628150255E-05      0.1053558391E-04
          0                 5           1            50    2     1      -0.1238254503E-05      50    2    1        -0.1847569174E-06      0.7536432656E-06
          0                 6           1            50    2     1       0.7434873520E-07      50    2    1         0.1119553673E-07      0.4604466796E-07

    ------------------------------------------------
       NWT REQUIRED            6 OUTER ITERATIONS 
       AND A TOTAL OF          9 INNER ITERATIONS.
    ------------------------------------------------

 NO OUTPUT CONTROL FOR STRESS PERIOD   45   TIME STEP    7
 
 WELLS WITH REDUCED PUMPING FOR STRESS PERIOD    45 TIME STEP     7
   LAY   ROW   COL         APPL.Q          ACT.Q        GW-HEAD       CELL-BOT
     1     3    50  -0.142984E+01  -0.340590E+00   0.355424E+01   0.000000E+00
     1     5    55  -0.142984E+01  -0.265616E+00   0.305700E+01   0.000000E+00
 
 
 SOLVING FOR HEAD 
                                                   Max.-Head-Change                         Max.-Flux-Residual
  Residual-Control   Outer-Iter.   Inner-Iter.     Column Row Layer    Maximum-Head-Change  Column Row Layer    Maximum-Flux-Residual          L2-NORM 
          0                 1           2            50    2     1      -0.2317805053E-01      50    2    1        -0.3004725884E-02      0.1367171309E-01
          0                 2           2            50    2     1       0.2279641931E-02      50    2    1         0.2996593432E-03      0.1323511734E-02
          0                 3           2            50    2     1      -0.2028395570E-03      50    2    1        -0.2697761955E-04      0.1233466741E-03
          0                 4           1            50    2     1       0.1608354207E-04      50    2    1         0.2160840827E-05      0.1022541674E-04
          0                 5           1            50    2     1      -0.1120025361E-05      50    2    1        -0.1519054383E-06      0.7345651886E-06
          0                 6           1            50    2     1       0.6724822349E-07      50    2    1         0.9204867091E-08      0.4500152378E-07

    ------------------------------------------------
       NWT REQUIRED            6 OUTER ITERATIONS 
       AND A TOTAL OF          9 INNER ITERATIONS.
    ------------------------------------------------

 NO OUTPUT CONTROL FOR STRESS PERIOD   45   TIME STEP    8
 
 WELLS WITH REDUCED PUMPING FOR STRESS PERIOD    45 TIME STEP     8
   LAY   ROW   COL         APPL.Q          ACT.Q        GW-HEAD       CELL-BOT
     1     3    50  -0.142987E+01  -0.339160E+00   0.354556E+01   0.000000E+00
     1     5    55  -0.142987E+01  -0.264476E+00   0.304956E+01   0.000000E+00
 
 
 SOLVING FOR HEAD 
                                                   Max.-Head-Change                         Max.-Flux-Residual
  Residual-Control   Outer-Iter.   Inner-Iter.     Column Row Layer    Maximum-Head-Change  Column Row Layer    Maximum-Flux-Residual          L2-NORM 
          0                 1           2            50    2     1      -0.2112325190E-01      50    2    1        -0.2472134435E-02      0.1328193004E-01
          0                 2           2            50    2     1       0.2077087235E-02      50    2    1         0.2465707834E-03      0.1290975153E-02
          0                 3           2            50    2     1      -0.1847686449E-03      50    2    1        -0.2219790027E-04      0.1207864059E-03
          0                 4           1            50    2     1       0.1464855845E-04      50    2    1         0.1777999386E-05      0.1006285263E-04
          0                 5           1            50    2     1      -0.1020015669E-05      50    2    1        -0.1249919668E-06      0.7260026847E-06
          0                 6           1            50    2     1       0.6124135765E-07      50    2    1         0.7574017427E-08      0.4460972339E-07

    ------------------------------------------------
       NWT REQUIRED            6 OUTER ITERATIONS 
       AND A TOTAL OF          9 INNER ITERATIONS.
    ------------------------------------------------

 NO OUTPUT CONTROL FOR STRESS PERIOD   45   TIME STEP    9
 
 WELLS WITH REDUCED PUMPING FOR STRESS PERIOD    45 TIME STEP     9
   LAY   ROW   COL         APPL.Q          ACT.Q        GW-HEAD       CELL-BOT
     1     3    50  -0.142994E+01  -0.338008E+00   0.353851E+01   0.000000E+00
     1     5    55  -0.142994E+01  -0.263575E+00   0.304363E+01   0.000000E+00
 
 
 SOLVING FOR HEAD 
                                                   Max.-Head-Change                         Max.-Flux-Residual
  Residual-Control   Outer-Iter.   Inner-Iter.     Column Row Layer    Maximum-Head-Change  Column Row Layer    Maximum-Flux-Residual          L2-NORM 
          0                 1           2            50    1     1      -0.1989517318E-01      50    2    1        -0.2048197456E-02      0.1301276267E-01
          0                 2           2            50    1     1       0.1967744206E-02      50    2    1         0.2043262181E-03      0.1268279813E-02
          0                 3           2            50    1     1      -0.1753986866E-03      50    2    1        -0.1839437961E-04      0.1190756441E-03
          0                 4           1            50    1     1       0.1391826582E-04      50    2    1         0.1473349491E-05      0.9968296495E-05
          0                 5           1            50    1     1      -0.9693576919E-06      50    2    1        -0.1035752979E-06      0.7223726343E-06

    ------------------------------------------------
       NWT REQUIRED            5 OUTER ITERATIONS 
       AND A TOTAL OF          8 INNER ITERATIONS.
    ------------------------------------------------

 NO OUTPUT CONTROL FOR STRESS PERIOD   45   TIME STEP   10
 
 WELLS WITH REDUCED PUMPING FOR STRESS PERIOD    45 TIME STEP    10
   LAY   ROW   COL         APPL.Q          ACT.Q        GW-HEAD       CELL-BOT
     1     3    50  -0.142988E+01  -0.337002E+00   0.353252E+01   0.000000E+00
     1     5    55  -0.142988E+01  -0.262802E+00   0.303867E+01   0.000000E+00
 
 
 SOLVING FOR HEAD 
                                                   Max.-Head-Change                         Max.-Flux-Residual
  Residual-Control   Outer-Iter.   Inner-Iter.     Column Row Layer    Maximum-Head-Change  Column Row Layer    Maximum-Flux-Residual          L2-NORM 
          0                 1           2            50    1     1      -0.2004194078E-01      50    1    1        -0.1752758805E-02      0.1282609545E-01
          0                 2           2            50    1     1       0.1981608912E-02      50    1    1         0.1751175185E-03      0.1251252984E-02
          0                 3           2            50    1     1      -0.1766213180E-03      50    1    1        -0.1576216810E-04      0.1177658934E-03
          0                 4           1            50    1     1       0.1401446561E-04      50    1    1         0.1262537215E-05      0.9904113072E-05
          0                 5           1            50    1     1      -0.9759710038E-06      50    1    1        -0.8873454538E-07      0.7211303972E-06

    ------------------------------------------------
       NWT REQUIRED            5 OUTER ITERATIONS 
       AND A TOTAL OF          8 INNER ITERATIONS.
    ------------------------------------------------

 NO OUTPUT CONTROL FOR STRESS PERIOD   45   TIME STEP   11
 
 WELLS WITH REDUCED PUMPING FOR STRESS PERIOD    45 TIME STEP    11
   LAY   ROW   COL         APPL.Q          ACT.Q        GW-HEAD       CELL-BOT
     1     3    50  -0.143005E+01  -0.336126E+00   0.352698E+01   0.000000E+00
     1     5    55  -0.143005E+01  -0.262138E+00   0.303415E+01   0.000000E+00
 
 
 SOLVING FOR HEAD 
                                                   Max.-Head-Change                         Max.-Flux-Residual
  Residual-Control   Outer-Iter.   Inner-Iter.     Column Row Layer    Maximum-Head-Change  Column Row Layer    Maximum-Flux-Residual          L2-NORM 
          0                 1           2            50    1     1      -0.1995586798E-01      50    1    1        -0.1605223289E-02      0.1269613487E-01
          0                 2           2            50    1     1       0.1972383458E-02      50    1    1         0.1603431895E-03      0.1237400943E-02
          0                 3           2            50    1     1      -0.1757789803E-03      50    1    1        -0.1443268057E-04      0.1166723080E-03
          0                 4           1            50    1     1       0.1394651198E-04      50    1    1         0.1156043622E-05      0.9857396039E-05
          0                 5           1            50    1     1      -0.9711135790E-06      50    1    1        -0.8124065073E-07      0.7213691765E-06

    ------------------------------------------------
       NWT REQUIRED            5 OUTER ITERATIONS 
       AND A TOTAL OF          8 INNER ITERATIONS.
    ------------------------------------------------

 NO OUTPUT CONTROL FOR STRESS PERIOD   45   TIME STEP   12
 
 WELLS WITH REDUCED PUMPING FOR STRESS PERIOD    45 TIME STEP    12
   LAY   ROW   COL         APPL.Q          ACT.Q        GW-HEAD       CELL-BOT
     1     3    50  -0.143007E+01  -0.335292E+00   0.352189E+01   0.000000E+00
     1     5    55  -0.143007E+01  -0.261511E+00   0.303003E+01   0.000000E+00
 
 
 SOLVING FOR HEAD 
                                                   Max.-Head-Change                         Max.-Flux-Residual
  Residual-Control   Outer-Iter.   Inner-Iter.     Column Row Layer    Maximum-Head-Change  Column Row Layer    Maximum-Flux-Residual          L2-NORM 
          0                 1           2            50    1     1      -0.1970141718E-01      50    1    1        -0.1453077810E-02      0.1259825921E-01
          0                 2           2            50    1     1       0.1946420967E-02      50    1    1         0.1451246303E-03      0.1228877343E-02
          0                 3           2            50    1     1      -0.1734374357E-03      50    1    1        -0.1306304939E-04      0.1161442364E-03
          0                 4           1            50    1     1       0.1375924776E-04      50    1    1         0.1046335817E-05      0.9856787761E-05
          0                 5           1            50    1     1      -0.9579006895E-06      50    1    1        -0.7351902329E-07      0.7248149452E-06

    ------------------------------------------------
       NWT REQUIRED            5 OUTER ITERATIONS 
       AND A TOTAL OF          8 INNER ITERATIONS.
    ------------------------------------------------

 NO OUTPUT CONTROL FOR STRESS PERIOD   45   TIME STEP   13
 
 WELLS WITH REDUCED PUMPING FOR STRESS PERIOD    45 TIME STEP    13
   LAY   ROW   COL         APPL.Q          ACT.Q        GW-HEAD       CELL-BOT
     1     3    50  -0.143007E+01  -0.334502E+00   0.351711E+01   0.000000E+00
     1     5    55  -0.143007E+01  -0.260922E+00   0.302619E+01   0.000000E+00
 
 
 SOLVING FOR HEAD 
                                                   Max.-Head-Change                         Max.-Flux-Residual
  Residual-Control   Outer-Iter.   Inner-Iter.     Column Row Layer    Maximum-Head-Change  Column Row Layer    Maximum-Flux-Residual          L2-NORM 
          0                 1           2            50    1     1      -0.1933596282E-01      50    1    1        -0.1304188908E-02      0.1251563872E-01
          0                 2           2            50    1     1       0.1909377726E-02      50    1    1         0.1302430805E-03      0.1221612473E-02
          0                 3           2            50    1     1      -0.1700867370E-03      50    1    1        -0.1172363889E-04      0.1157222946E-03
          0                 4           1            50    1     1       0.1349157005E-04      50    1    1         0.9390495581E-06      0.9863367726E-05
          0                 5           1            50    1     1      -0.9390500933E-06       3    4    1         0.7122611478E-07      0.7287300133E-06

    ------------------------------------------------
       NWT REQUIRED            5 OUTER ITERATIONS 
       AND A TOTAL OF          8 INNER ITERATIONS.
    ------------------------------------------------

 NO OUTPUT CONTROL FOR STRESS PERIOD   45   TIME STEP   14
 
 WELLS WITH REDUCED PUMPING FOR STRESS PERIOD    45 TIME STEP    14
   LAY   ROW   COL         APPL.Q          ACT.Q        GW-HEAD       CELL-BOT
     1     3    50  -0.143003E+01  -0.333738E+00   0.351254E+01   0.000000E+00
     1     5    55  -0.143003E+01  -0.260356E+00   0.302255E+01   0.000000E+00
 
 
 SOLVING FOR HEAD 
                                                   Max.-Head-Change                         Max.-Flux-Residual
  Residual-Control   Outer-Iter.   Inner-Iter.     Column Row Layer    Maximum-Head-Change  Column Row Layer    Maximum-Flux-Residual          L2-NORM 
          0                 1           2            50    1     1      -0.1891096698E-01      50    1    1        -0.1163687247E-02      0.1244410123E-01
          0                 2           2            50    1     1       0.1866370268E-02      50    1    1         0.1162072729E-03      0.1215222947E-02
          0                 3           2            50    1     1      -0.1661984878E-03      50    1    1        -0.1046027709E-04      0.1153816161E-03
          0                 4           1            50    1     1       0.1318033487E-04      50    1    1         0.8378553458E-06      0.9877437964E-05
          0                 5           1            50    1     1      -0.9170664232E-06       2    4    1         0.7368611321E-07      0.7332006280E-06

    ------------------------------------------------
       NWT REQUIRED            5 OUTER ITERATIONS 
       AND A TOTAL OF          8 INNER ITERATIONS.
    ------------------------------------------------

 NO OUTPUT CONTROL FOR STRESS PERIOD   45   TIME STEP   15
 
 WELLS WITH REDUCED PUMPING FOR STRESS PERIOD    45 TIME STEP    15
   LAY   ROW   COL         APPL.Q          ACT.Q        GW-HEAD       CELL-BOT
     1     3    50  -0.143003E+01  -0.332998E+00   0.350805E+01   0.000000E+00
     1     5    55  -0.143003E+01  -0.259810E+00   0.301899E+01   0.000000E+00
 
 
 SOLVING FOR HEAD 
                                                   Max.-Head-Change                         Max.-Flux-Residual
  Residual-Control   Outer-Iter.   Inner-Iter.     Column Row Layer    Maximum-Head-Change  Column Row Layer    Maximum-Flux-Residual          L2-NORM 
          0                 1           2            50    1     1      -0.1846746181E-01      50    1    1        -0.1034699708E-02      0.1237886513E-01
          0                 2           2            50    1     1       0.1821368221E-02      50    1    1         0.1033261514E-03      0.1209403004E-02
          0                 3           2            50    1     1      -0.1621179671E-03      50    1    1        -0.9300805767E-05      0.1150758607E-03
          0                 4           1            50    1     1       0.1285298900E-04       1    4    1        -0.8512591947E-06      0.9893181795E-05
          0                 5           1            50    1     1      -0.8938564971E-06       1    4    1         0.7582936234E-07      0.7377439033E-06

    ------------------------------------------------
       NWT REQUIRED            5 OUTER ITERATIONS 
       AND A TOTAL OF          8 INNER ITERATIONS.
    ------------------------------------------------

 NO OUTPUT CONTROL FOR STRESS PERIOD   45   TIME STEP   16
 
 WELLS WITH REDUCED PUMPING FOR STRESS PERIOD    45 TIME STEP    16
   LAY   ROW   COL         APPL.Q          ACT.Q        GW-HEAD       CELL-BOT
     1     3    50  -0.143003E+01  -0.332266E+00   0.350361E+01   0.000000E+00
     1     5    55  -0.143003E+01  -0.259273E+00   0.301547E+01   0.000000E+00
 
 
 SOLVING FOR HEAD 
                                                   Max.-Head-Change                         Max.-Flux-Residual
  Residual-Control   Outer-Iter.   Inner-Iter.     Column Row Layer    Maximum-Head-Change  Column Row Layer    Maximum-Flux-Residual          L2-NORM 
          0                 1           2            51    1     1      -0.1913911416E-01      50    1    1        -0.9186342760E-03      0.1232227880E-01
          0                 2           2            51    1     1       0.1881236842E-02      50    1    1         0.9173824493E-04      0.1203936111E-02
          0                 3           2            51    1     1      -0.1671922362E-03      50    1    1        -0.8257715129E-05      0.1147885001E-03
          0                 4           1            51    1     1       0.1325053652E-04       1    4    1        -0.8678262660E-06      0.9909641036E-05
          0                 5           1            51    1     1      -0.9220447705E-06       2    4    1         0.7777804001E-07      0.7422512134E-06

    ------------------------------------------------
       NWT REQUIRED            5 OUTER ITERATIONS 
       AND A TOTAL OF          8 INNER ITERATIONS.
    ------------------------------------------------

 NO OUTPUT CONTROL FOR STRESS PERIOD   45   TIME STEP   17
 
 WELLS WITH REDUCED PUMPING FOR STRESS PERIOD    45 TIME STEP    17
   LAY   ROW   COL         APPL.Q          ACT.Q        GW-HEAD       CELL-BOT
     1     3    50  -0.143006E+01  -0.331537E+00   0.349914E+01   0.000000E+00
     1     5    55  -0.143006E+01  -0.258740E+00   0.301195E+01   0.000000E+00
 
 
 SOLVING FOR HEAD 
                                                   Max.-Head-Change                         Max.-Flux-Residual
  Residual-Control   Outer-Iter.   Inner-Iter.     Column Row Layer    Maximum-Head-Change  Column Row Layer    Maximum-Flux-Residual          L2-NORM 
          0                 1           2            51    1     1      -0.1998739107E-01      51    1    1        -0.8657744849E-03      0.1228902307E-01
          0                 2           2            51    1     1       0.1962045999E-02      51    1    1         0.8650335384E-04      0.1197974835E-02
          0                 3           2            51    1     1      -0.1742385163E-03      51    1    1        -0.7786165958E-05      0.1142712559E-03
          0                 4           1            51    1     1       0.1380252224E-04       1    4    1        -0.8647482126E-06      0.9901621646E-05
          0                 5           1            51    1     1      -0.9599693182E-06       1    4    1         0.7854627171E-07      0.7449959729E-06

    ------------------------------------------------
       NWT REQUIRED            5 OUTER ITERATIONS 
       AND A TOTAL OF          8 INNER ITERATIONS.
    ------------------------------------------------

 NO OUTPUT CONTROL FOR STRESS PERIOD   45   TIME STEP   18
 
 WELLS WITH REDUCED PUMPING FOR STRESS PERIOD    45 TIME STEP    18
   LAY   ROW   COL         APPL.Q          ACT.Q        GW-HEAD       CELL-BOT
     1     3    50  -0.143005E+01  -0.330802E+00   0.349469E+01   0.000000E+00
     1     5    55  -0.143005E+01  -0.258202E+00   0.300845E+01   0.000000E+00
 
 
 SOLVING FOR HEAD 
                                                   Max.-Head-Change                         Max.-Flux-Residual
  Residual-Control   Outer-Iter.   Inner-Iter.     Column Row Layer    Maximum-Head-Change  Column Row Layer    Maximum-Flux-Residual          L2-NORM 
          0                 1           2             1    1     1      -0.2129421785E-01      51    1    1        -0.8220529728E-03      0.1227167884E-01
          0                 2           2            51    1     1       0.2036255279E-02      51    1    1         0.8212516993E-04      0.1196029153E-02
          0                 3           2            51    1     1      -0.1806373123E-03      51    1    1        -0.7392209971E-05      0.1142747097E-03
          0                 4           1            51    1     1       0.1429998486E-04       3    4    1        -0.8844961066E-06      0.9940283586E-05
          0                 5           1            51    1     1      -0.9938354180E-06       2    4    1         0.8089972425E-07      0.7508889597E-06

    ------------------------------------------------
       NWT REQUIRED            5 OUTER ITERATIONS 
       AND A TOTAL OF          8 INNER ITERATIONS.
    ------------------------------------------------

 NO OUTPUT CONTROL FOR STRESS PERIOD   45   TIME STEP   19
 
 WELLS WITH REDUCED PUMPING FOR STRESS PERIOD    45 TIME STEP    19
   LAY   ROW   COL         APPL.Q          ACT.Q        GW-HEAD       CELL-BOT
     1     3    50  -0.142997E+01  -0.330053E+00   0.349024E+01   0.000000E+00
     1     5    55  -0.142997E+01  -0.257657E+00   0.300497E+01   0.000000E+00
 
 
 SOLVING FOR HEAD 
                                                   Max.-Head-Change                         Max.-Flux-Residual
  Residual-Control   Outer-Iter.   Inner-Iter.     Column Row Layer    Maximum-Head-Change  Column Row Layer    Maximum-Flux-Residual          L2-NORM 
          0                 1           2             1    1     1      -0.2343761597E-01       1    3    1        -0.8051774923E-03      0.1225441795E-01
          0                 2           2             1    1     1       0.2121818624E-02       1    3    1         0.8051371143E-04      0.1195277226E-02
          0                 3           2            51    1     1      -0.1866776344E-03       1    3    1        -0.7246510787E-05      0.1143927835E-03
          0                 4           1            51    1     1       0.1476692950E-04       1    4    1        -0.9082495680E-06      0.9985600719E-05
          0                 5           1            51    1     1      -0.1025274506E-05       2    4    1         0.8323275580E-07      0.7568599113E-06
          0                 6           1            51    1     1       0.6143305998E-07       2    4    1        -0.5947303094E-08      0.4864273239E-07

    ------------------------------------------------
       NWT REQUIRED            6 OUTER ITERATIONS 
       AND A TOTAL OF          9 INNER ITERATIONS.
    ------------------------------------------------

 NO OUTPUT CONTROL FOR STRESS PERIOD   45   TIME STEP   20
 
 WELLS WITH REDUCED PUMPING FOR STRESS PERIOD    45 TIME STEP    20
   LAY   ROW   COL         APPL.Q          ACT.Q        GW-HEAD       CELL-BOT
     1     3    50  -0.142996E+01  -0.329292E+00   0.348562E+01   0.000000E+00
     1     5    55  -0.142996E+01  -0.257102E+00   0.300134E+01   0.000000E+00
 
 
 SOLVING FOR HEAD 
                                                   Max.-Head-Change                         Max.-Flux-Residual
  Residual-Control   Outer-Iter.   Inner-Iter.     Column Row Layer    Maximum-Head-Change  Column Row Layer    Maximum-Flux-Residual          L2-NORM 
          0                 1           2             1    1     1      -0.2575921074E-01       1    5    1        -0.8031920655E-03      0.1225235128E-01
          0                 2           2             1    1     1       0.2324647896E-02       1    5    1         0.8031508638E-04      0.1193920677E-02
          0                 3           2            51    1     1      -0.1925134785E-03       1    5    1        -0.7228661394E-05      0.1143503895E-03
          0                 4           1            51    1     1       0.1521299269E-04       1    4    1        -0.9211686596E-06      0.1001368816E-04
          0                 5           1            51    1     1      -0.1054783114E-05       2    4    1         0.8482820490E-07      0.7612164765E-06
          0                 6           1            51    1     1       0.6314188844E-07       2    4    1        -0.6087446991E-08      0.4908117620E-07

    ------------------------------------------------
       NWT REQUIRED            6 OUTER ITERATIONS 
       AND A TOTAL OF          9 INNER ITERATIONS.
    ------------------------------------------------

 NO OUTPUT CONTROL FOR STRESS PERIOD   45   TIME STEP   21
 
 WELLS WITH REDUCED PUMPING FOR STRESS PERIOD    45 TIME STEP    21
   LAY   ROW   COL         APPL.Q          ACT.Q        GW-HEAD       CELL-BOT
     1     3    50  -0.143000E+01  -0.328520E+00   0.348086E+01   0.000000E+00
     1     5    55  -0.143000E+01  -0.256539E+00   0.299760E+01   0.000000E+00
 
 
 SOLVING FOR HEAD 
                                                   Max.-Head-Change                         Max.-Flux-Residual
  Residual-Control   Outer-Iter.   Inner-Iter.     Column Row Layer    Maximum-Head-Change  Column Row Layer    Maximum-Flux-Residual          L2-NORM 
          0                 1           2             1    1     1      -0.2829907368E-01       1    5    1        -0.8019750838E-03      0.1225996701E-01
          0                 2           2             1    1     1       0.2545963213E-02       1    5    1         0.8019312486E-04      0.1193131708E-02
          0                 3           2             1    1     1      -0.2072204931E-03       1    5    1        -0.7217716352E-05      0.1143254632E-03
          0                 4           1            51    1     1       0.1566283924E-04       1    4    1        -0.9324621750E-06      0.1004105275E-04
          0                 5           1            51    1     1      -0.1083990161E-05       2    4    1         0.8629001513E-07      0.7651267402E-06
          0                 6           1            51    1     1       0.6480689249E-07       2    4    1        -0.6216342996E-08      0.4947302545E-07

    ------------------------------------------------
       NWT REQUIRED            6 OUTER ITERATIONS 
       AND A TOTAL OF          9 INNER ITERATIONS.
    ------------------------------------------------

 NO OUTPUT CONTROL FOR STRESS PERIOD   45   TIME STEP   22
 
 WELLS WITH REDUCED PUMPING FOR STRESS PERIOD    45 TIME STEP    22
   LAY   ROW   COL         APPL.Q          ACT.Q        GW-HEAD       CELL-BOT
     1     3    50  -0.142999E+01  -0.327716E+00   0.347598E+01   0.000000E+00
     1     5    55  -0.142999E+01  -0.255946E+00   0.299372E+01   0.000000E+00
 
 
 SOLVING FOR HEAD 
                                                   Max.-Head-Change                         Max.-Flux-Residual
  Residual-Control   Outer-Iter.   Inner-Iter.     Column Row Layer    Maximum-Head-Change  Column Row Layer    Maximum-Flux-Residual          L2-NORM 
          0                 1           2             1    1     1      -0.3109490489E-01       1    7    1        -0.8010291393E-03      0.1227595091E-01
          0                 2           2             1    1     1       0.2789881223E-02       1    7    1         0.8009990548E-04      0.1192795246E-02
          0                 3           2             1    1     1      -0.2262115402E-03       1    7    1        -0.7209285187E-05      0.1142846705E-03
          0                 4           1             1    1     1       0.1640660064E-04       1    4    1        -0.9403095262E-06      0.1006441287E-04
          0                 5           1            51    1     1      -0.1112816224E-05       2    4    1         0.8744774860E-07      0.7682815895E-06
          0                 6           1            51    1     1       0.6641223309E-07       2    4    1        -0.6324480495E-08      0.4979773856E-07

    ------------------------------------------------
       NWT REQUIRED            6 OUTER ITERATIONS 
       AND A TOTAL OF          9 INNER ITERATIONS.
    ------------------------------------------------

 NO OUTPUT CONTROL FOR STRESS PERIOD   45   TIME STEP   23
 
 WELLS WITH REDUCED PUMPING FOR STRESS PERIOD    45 TIME STEP    23
   LAY   ROW   COL         APPL.Q          ACT.Q        GW-HEAD       CELL-BOT
     1     3    50  -0.143003E+01  -0.326902E+00   0.347096E+01   0.000000E+00
     1     5    55  -0.143003E+01  -0.255349E+00   0.298976E+01   0.000000E+00
 
 
 SOLVING FOR HEAD 
                                                   Max.-Head-Change                         Max.-Flux-Residual
  Residual-Control   Outer-Iter.   Inner-Iter.     Column Row Layer    Maximum-Head-Change  Column Row Layer    Maximum-Flux-Residual          L2-NORM 
          0                 1           2             4    4     1      -0.3568432698E-01       1    5    1        -0.8003486787E-03      0.1246458049E-01
          0                 2           2             2    1     1       0.3132401618E-02       1    5    1         0.8004380873E-04      0.1190918833E-02
          0                 3           2             2    1     1      -0.2527372949E-03       1    5    1        -0.7204295024E-05      0.1131012023E-03
          0                 4           1             1    1     1       0.1820164376E-04       1    4    1        -0.8721744713E-06      0.9967532454E-05
          0                 5           1            52    1     1      -0.1176203491E-05       2    4    1         0.8406198759E-07      0.7625059401E-06
          0                 6           1            52    1     1       0.6934121084E-07       2    4    1        -0.6213969783E-08      0.4961587483E-07

    ------------------------------------------------
       NWT REQUIRED            6 OUTER ITERATIONS 
       AND A TOTAL OF          9 INNER ITERATIONS.
    ------------------------------------------------

 NO OUTPUT CONTROL FOR STRESS PERIOD   45   TIME STEP   24
 
 WELLS WITH REDUCED PUMPING FOR STRESS PERIOD    45 TIME STEP    24
   LAY   ROW   COL         APPL.Q          ACT.Q        GW-HEAD       CELL-BOT
     1     3    50  -0.142999E+01  -0.326048E+00   0.346579E+01   0.000000E+00
     1     5    55  -0.142999E+01  -0.254719E+00   0.298565E+01   0.000000E+00
 
 
 SOLVING FOR HEAD 
                                                   Max.-Head-Change                         Max.-Flux-Residual
  Residual-Control   Outer-Iter.   Inner-Iter.     Column Row Layer    Maximum-Head-Change  Column Row Layer    Maximum-Flux-Residual          L2-NORM 
          0                 1           2             1    4     1      -0.4124942502E-01       3    5    1        -0.8313136127E-03      0.1286569044E-01
          0                 2           2             2    1     1       0.3583413994E-02       3    3    1         0.8314664919E-04      0.1213433629E-02
          0                 3           2             3    1     1      -0.2883204768E-03       4    3    1        -0.7483996907E-05      0.1141786725E-03
          0                 4           1             4    1     1       0.2066976996E-04       3    4    1        -0.8556433322E-06      0.1005480621E-04
          0                 5           1             1    1     1      -0.1273140574E-05       2    4    1         0.8496962067E-07      0.7692146738E-06
          0                 6           1            52    1     1       0.7283556324E-07       4    4    1        -0.6360565408E-08      0.5017342071E-07

    ------------------------------------------------
       NWT REQUIRED            6 OUTER ITERATIONS 
       AND A TOTAL OF          9 INNER ITERATIONS.
    ------------------------------------------------

 NO OUTPUT CONTROL FOR STRESS PERIOD   45   TIME STEP   25
 
 WELLS WITH REDUCED PUMPING FOR STRESS PERIOD    45 TIME STEP    25
   LAY   ROW   COL         APPL.Q          ACT.Q        GW-HEAD       CELL-BOT
     1     3    50  -0.143002E+01  -0.325172E+00   0.346041E+01   0.000000E+00
     1     5    55  -0.143002E+01  -0.254073E+00   0.298137E+01   0.000000E+00
 
 
 SOLVING FOR HEAD 
                                                   Max.-Head-Change                         Max.-Flux-Residual
  Residual-Control   Outer-Iter.   Inner-Iter.     Column Row Layer    Maximum-Head-Change  Column Row Layer    Maximum-Flux-Residual          L2-NORM 
          0                 1           2             3    4     1      -0.4734420405E-01       1    5    1        -0.8704647908E-03      0.1334080742E-01
          0                 2           2             2    1     1       0.4126682888E-02       1    3    1         0.8706352795E-04      0.1254000789E-02
          0                 3           2             2    1     1      -0.3322305986E-03       1    5    1        -0.7836186430E-05      0.1174328243E-03
          0                 4           1             3    1     1       0.2377074551E-04       1    4    1        -0.8560161007E-06      0.1033196224E-04
          0                 5           1             1    1     1      -0.1447404438E-05       2    4    1         0.8618677683E-07      0.7884233815E-06
          0                 6           1             1    1     1       0.7679575474E-07       2    4    1        -0.6515875839E-08      0.5142442023E-07

    ------------------------------------------------
       NWT REQUIRED            6 OUTER ITERATIONS 
       AND A TOTAL OF          9 INNER ITERATIONS.
    ------------------------------------------------

 NO OUTPUT CONTROL FOR STRESS PERIOD   45   TIME STEP   26
 
 WELLS WITH REDUCED PUMPING FOR STRESS PERIOD    45 TIME STEP    26
   LAY   ROW   COL         APPL.Q          ACT.Q        GW-HEAD       CELL-BOT
     1     3    50  -0.143001E+01  -0.324272E+00   0.345491E+01   0.000000E+00
     1     5    55  -0.143001E+01  -0.253408E+00   0.297700E+01   0.000000E+00
 
 
 SOLVING FOR HEAD 
                                                   Max.-Head-Change                         Max.-Flux-Residual
  Residual-Control   Outer-Iter.   Inner-Iter.     Column Row Layer    Maximum-Head-Change  Column Row Layer    Maximum-Flux-Residual          L2-NORM 
          0                 1           3             1    4     1      -0.5228661115E-01       2    3    1        -0.9084230313E-03      0.1370602369E-01
          0                 2           2             1    1     1       0.4640127171E-02       2    3    1         0.9084181296E-04      0.1300670190E-02
          0                 3           2             1    1     1      -0.3732907793E-03       3    5    1        -0.8176082542E-05      0.1224908993E-03
          0                 4           1             1    1     1       0.2665102069E-04       4    4    1        -0.9662402256E-06      0.1080839755E-04
          0                 5           1             1    1     1      -0.1600064176E-05       4    4    1         0.9457313155E-07      0.8217977092E-06
          0                 6           1             1    1     1       0.8388151395E-07       4    4    1        -0.7030624971E-08      0.5347034400E-07

    ------------------------------------------------
       NWT REQUIRED            6 OUTER ITERATIONS 
       AND A TOTAL OF         10 INNER ITERATIONS.
    ------------------------------------------------

 NO OUTPUT CONTROL FOR STRESS PERIOD   45   TIME STEP   27
 
 WELLS WITH REDUCED PUMPING FOR STRESS PERIOD    45 TIME STEP    27
   LAY   ROW   COL         APPL.Q          ACT.Q        GW-HEAD       CELL-BOT
     1     3    50  -0.143000E+01  -0.323321E+00   0.344910E+01   0.000000E+00
     1     5    55  -0.143000E+01  -0.252701E+00   0.297234E+01   0.000000E+00
 
 
 SOLVING FOR HEAD 
                                                   Max.-Head-Change                         Max.-Flux-Residual
  Residual-Control   Outer-Iter.   Inner-Iter.     Column Row Layer    Maximum-Head-Change  Column Row Layer    Maximum-Flux-Residual          L2-NORM 
          0                 1           3             1    1     1      -0.5716061928E-01       1    5    1        -0.9197665838E-03      0.1392395650E-01
          0                 2           2             1    1     1       0.5111624019E-02       1    5    1         0.9196503708E-04      0.1335833290E-02
          0                 3           2             1    1     1      -0.4106794060E-03       1    5    1        -0.8277635409E-05      0.1265805768E-03
          0                 4           1             1    1     1       0.2923322516E-04       1    4    1        -0.1025897188E-05      0.1119821621E-04
          0                 5           1             1    1     1      -0.1723422906E-05       2    4    1         0.9900798759E-07      0.8465646311E-06
          0                 6           1             1    1     1       0.8904374922E-07       2    4    1        -0.7290417159E-08      0.5486162669E-07

    ------------------------------------------------
       NWT REQUIRED            6 OUTER ITERATIONS 
       AND A TOTAL OF         10 INNER ITERATIONS.
    ------------------------------------------------

 NO OUTPUT CONTROL FOR STRESS PERIOD   45   TIME STEP   28
 
 WELLS WITH REDUCED PUMPING FOR STRESS PERIOD    45 TIME STEP    28
   LAY   ROW   COL         APPL.Q          ACT.Q        GW-HEAD       CELL-BOT
     1     3    50  -0.142997E+01  -0.322347E+00   0.344317E+01   0.000000E+00
     1     5    55  -0.142997E+01  -0.251978E+00   0.296760E+01   0.000000E+00
 
 
 SOLVING FOR HEAD 
                                                   Max.-Head-Change                         Max.-Flux-Residual
  Residual-Control   Outer-Iter.   Inner-Iter.     Column Row Layer    Maximum-Head-Change  Column Row Layer    Maximum-Flux-Residual          L2-NORM 
          0                 1           3             1    1     1      -0.6277213278E-01       1    5    1        -0.9147764143E-03      0.1405767625E-01
          0                 2           2             1    1     1       0.5603574006E-02       1    5    1         0.9146719437E-04      0.1353828742E-02
          0                 3           2             1    1     1      -0.4490435592E-03       1    5    1        -0.8232885699E-05      0.1285859384E-03
          0                 4           1             1    1     1       0.3181631345E-04       1    4    1        -0.1033862322E-05      0.1139672112E-04
          0                 5           1             1    1     1      -0.1829679179E-05       2    4    1         0.9988088578E-07      0.8556734385E-06
          0                 6           1             1    1     1       0.9268440386E-07       2    4    1        -0.7328424090E-08      0.5522883397E-07

    ------------------------------------------------
       NWT REQUIRED            6 OUTER ITERATIONS 
       AND A TOTAL OF         10 INNER ITERATIONS.
    ------------------------------------------------

 NO OUTPUT CONTROL FOR STRESS PERIOD   45   TIME STEP   29
 
 WELLS WITH REDUCED PUMPING FOR STRESS PERIOD    45 TIME STEP    29
   LAY   ROW   COL         APPL.Q          ACT.Q        GW-HEAD       CELL-BOT
     1     3    50  -0.143001E+01  -0.321343E+00   0.343695E+01   0.000000E+00
     1     5    55  -0.143001E+01  -0.251233E+00   0.296263E+01   0.000000E+00
 
 
 SOLVING FOR HEAD 
                                                   Max.-Head-Change                         Max.-Flux-Residual
  Residual-Control   Outer-Iter.   Inner-Iter.     Column Row Layer    Maximum-Head-Change  Column Row Layer    Maximum-Flux-Residual          L2-NORM 
          0                 1           3             1    1     1      -0.6889555805E-01       1    5    1        -0.9124072400E-03      0.1415322788E-01
          0                 2           2             1    1     1       0.6139452707E-02       1    5    1         0.9122971963E-04      0.1365938665E-02
          0                 3           2             1    1     1      -0.4907142898E-03       1    5    1        -0.8211591902E-05      0.1299161822E-03
          0                 4           1             1    1     1       0.3459745579E-04       1    4    1        -0.1038818244E-05      0.1153206535E-04
          0                 5           1             1    1     1      -0.1928856054E-05       2    4    1         0.1005151447E-06      0.8583989831E-06
          0                 6           1             1    1     1       0.9545880138E-07       2    4    1        -0.7339117758E-08      0.5515696874E-07

    ------------------------------------------------
       NWT REQUIRED            6 OUTER ITERATIONS 
       AND A TOTAL OF         10 INNER ITERATIONS.
    ------------------------------------------------

 OUTPUT CONTROL FOR STRESS PERIOD   45   TIME STEP   30
    PRINT HEAD FOR ALL LAYERS
    SAVE HEAD FOR ALL LAYERS
    PRINT BUDGET
    SAVE BUDGET
 
 WELLS WITH REDUCED PUMPING FOR STRESS PERIOD    45 TIME STEP    30
   LAY   ROW   COL         APPL.Q          ACT.Q        GW-HEAD       CELL-BOT
     1     3    50  -0.143000E+01  -0.320246E+00   0.343023E+01   0.000000E+00
     1     5    55  -0.143000E+01  -0.250416E+00   0.295724E+01   0.000000E+00

            WELLS   PERIOD   45   STEP  30
 WELL      1   LAYER   1   ROW     3   COL    50   RATE   -0.320246    
 WELL      2   LAYER   1   ROW     5   COL    55   RATE   -0.250416    
 

  HEAD DEP BOUNDS   PERIOD   45   STEP    30
 BOUNDARY      1   LAYER   1   ROW     1   COL   100   RATE    1.307620E-02
 BOUNDARY      2   LAYER   1   ROW     2   COL   100   RATE    1.303786E-02
 BOUNDARY      3   LAYER   1   ROW     3   COL   100   RATE    1.278347E-02
 BOUNDARY      4   LAYER   1   ROW     4   COL   100   RATE    7.637876E-03
 BOUNDARY      5   LAYER   1   ROW     5   COL   100   RATE    1.278347E-02
 BOUNDARY      6   LAYER   1   ROW     6   COL   100   RATE    1.303786E-02
 BOUNDARY      7   LAYER   1   ROW     7   COL   100   RATE    1.307620E-02



 STREAM LISTING     PERIOD     45   STEP       30

 LAYER ROW COL. STREAM  RCH.   FLOW INTO    STREAM     FLOW OUT OF   OVRLND.    DIRECT     STREAM      STREAM      STREAM     STREAM  STREAMBED   FLOW TO   CHNG. UNSAT. 
                SEG.NO.  NO.   STRM. RCH.    LOSS       STRM. RCH.   RUNOFF     PRECIP       ET         HEAD        DEPTH      WIDTH  CONDCTNC.   WAT. TAB.

   1    4    1     1     1    3.4300E+00  1.2954E-03   3.4287E+00  0.000E+00  0.000E+00  0.000E+00  1.41237E+02  1.387E+00  3.472E+00  6.864E-04  1.430E-03 -1.341E-04
   1    4    2     1     2    3.4287E+00  1.2951E-03   3.4274E+00  0.000E+00  0.000E+00  0.000E+00  1.40937E+02  1.387E+00  3.472E+00  6.863E-04  1.429E-03 -1.337E-04
   1    4    3     1     3    3.4274E+00  1.2947E-03   3.4261E+00  0.000E+00  0.000E+00  0.000E+00  1.40637E+02  1.387E+00  3.472E+00  6.862E-04  1.428E-03 -1.333E-04
   1    4    4     1     4    3.4261E+00  1.2944E-03   3.4248E+00  0.000E+00  0.000E+00  0.000E+00  1.40337E+02  1.387E+00  3.471E+00  6.861E-04  1.428E-03 -1.330E-04
   1    4    5     1     5    3.4248E+00  1.2940E-03   3.4235E+00  0.000E+00  0.000E+00  0.000E+00  1.40036E+02  1.386E+00  3.471E+00  6.860E-04  1.427E-03 -1.327E-04
   1    4    6     1     6    3.4235E+00  1.2937E-03   3.4222E+00  0.000E+00  0.000E+00  0.000E+00  1.39736E+02  1.386E+00  3.471E+00  6.859E-04  1.426E-03 -1.325E-04
   1    4    7     1     7    3.4222E+00  1.2933E-03   3.4209E+00  0.000E+00  0.000E+00  0.000E+00  1.39436E+02  1.386E+00  3.470E+00  6.858E-04  1.426E-03 -1.322E-04
   1    4    8     1     8    3.4209E+00  1.2930E-03   3.4196E+00  0.000E+00  0.000E+00  0.000E+00  1.39135E+02  1.385E+00  3.470E+00  6.857E-04  1.425E-03 -1.320E-04
   1    4    9     1     9    3.4196E+00  1.2926E-03   3.4184E+00  0.000E+00  0.000E+00  0.000E+00  1.38835E+02  1.385E+00  3.470E+00  6.857E-04  1.425E-03 -1.318E-04
   1    4   10     1    10    3.4184E+00  1.2923E-03   3.4171E+00  0.000E+00  0.000E+00  0.000E+00  1.38535E+02  1.385E+00  3.469E+00  6.856E-04  1.424E-03 -1.317E-04
   1    4   11     1    11    3.4171E+00  1.2919E-03   3.4158E+00  0.000E+00  0.000E+00  0.000E+00  1.38235E+02  1.385E+00  3.469E+00  6.855E-04  1.424E-03 -1.316E-04
   1    4   12     1    12    3.4158E+00  1.2915E-03   3.4145E+00  0.000E+00  0.000E+00  0.000E+00  1.37934E+02  1.384E+00  3.469E+00  6.854E-04  1.423E-03 -1.315E-04
   1    4   13     1    13    3.4145E+00  1.2912E-03   3.4132E+00  0.000E+00  0.000E+00  0.000E+00  1.37634E+02  1.384E+00  3.469E+00  6.853E-04  1.423E-03 -1.314E-04
   1    4   14     1    14    3.4132E+00  1.2908E-03   3.4119E+00  0.000E+00  0.000E+00  0.000E+00  1.37334E+02  1.384E+00  3.468E+00  6.852E-04  1.422E-03 -1.313E-04
   1    4   15     1    15    3.4119E+00  1.2905E-03   3.4106E+00  0.000E+00  0.000E+00  0.000E+00  1.37034E+02  1.384E+00  3.468E+00  6.851E-04  1.422E-03 -1.313E-04
   1    4   16     1    16    3.4106E+00  1.2901E-03   3.4093E+00  0.000E+00  0.000E+00  0.000E+00  1.36733E+02  1.383E+00  3.468E+00  6.850E-04  1.422E-03 -1.314E-04
   1    4   17     1    17    3.4093E+00  1.2898E-03   3.4080E+00  0.000E+00  0.000E+00  0.000E+00  1.36433E+02  1.383E+00  3.467E+00  6.849E-04  1.421E-03 -1.314E-04
   1    4   18     1    18    3.4080E+00  1.2894E-03   3.4067E+00  0.000E+00  0.000E+00  0.000E+00  1.36133E+02  1.383E+00  3.467E+00  6.849E-04  1.421E-03 -1.315E-04
   1    4   19     1    19    3.4067E+00  1.2891E-03   3.4054E+00  0.000E+00  0.000E+00  0.000E+00  1.35832E+02  1.382E+00  3.467E+00  6.848E-04  1.421E-03 -1.316E-04
   1    4   20     1    20    3.4054E+00  1.2887E-03   3.4042E+00  0.000E+00  0.000E+00  0.000E+00  1.35532E+02  1.382E+00  3.466E+00  6.847E-04  1.421E-03 -1.318E-04
   1    4   21     1    21    3.4042E+00  1.2884E-03   3.4029E+00  0.000E+00  0.000E+00  0.000E+00  1.35232E+02  1.382E+00  3.466E+00  6.846E-04  1.421E-03 -1.320E-04
   1    4   22     1    22    3.4029E+00  1.2880E-03   3.4016E+00  0.000E+00  0.000E+00  0.000E+00  1.34932E+02  1.382E+00  3.466E+00  6.845E-04  1.420E-03 -1.322E-04
   1    4   23     1    23    3.4016E+00  1.2877E-03   3.4003E+00  0.000E+00  0.000E+00  0.000E+00  1.34631E+02  1.381E+00  3.465E+00  6.844E-04  1.420E-03 -1.325E-04
   1    4   24     1    24    3.4003E+00  1.2873E-03   3.3990E+00  0.000E+00  0.000E+00  0.000E+00  1.34331E+02  1.381E+00  3.465E+00  6.843E-04  1.420E-03 -1.328E-04
   1    4   25     1    25    3.3990E+00  1.2870E-03   3.3977E+00  0.000E+00  0.000E+00  0.000E+00  1.34031E+02  1.381E+00  3.465E+00  6.842E-04  1.420E-03 -1.331E-04
   1    4   26     1    26    3.3977E+00  1.2866E-03   3.3964E+00  0.000E+00  0.000E+00  0.000E+00  1.33731E+02  1.381E+00  3.464E+00  6.841E-04  1.420E-03 -1.334E-04
   1    4   27     1    27    3.3964E+00  1.2863E-03   3.3951E+00  0.000E+00  0.000E+00  0.000E+00  1.33430E+02  1.380E+00  3.464E+00  6.841E-04  1.424E-03 -1.377E-04
   1    4   28     1    28    3.3951E+00  1.2859E-03   3.3939E+00  0.000E+00  0.000E+00  0.000E+00  1.33130E+02  1.380E+00  3.464E+00  6.840E-04  1.441E-03 -1.549E-04
   1    4   29     1    29    3.3939E+00  1.2855E-03   3.3926E+00  0.000E+00  0.000E+00  0.000E+00  1.32830E+02  1.380E+00  3.463E+00  6.839E-04  1.459E-03 -1.732E-04
   1    4   30     1    30    3.3926E+00  1.2852E-03   3.3913E+00  0.000E+00  0.000E+00  0.000E+00  1.32530E+02  1.380E+00  3.463E+00  6.838E-04  1.473E-03 -1.872E-04
   1    4   31     1    31    3.3913E+00  1.2848E-03   3.3900E+00  0.000E+00  0.000E+00  0.000E+00  1.32229E+02  1.379E+00  3.463E+00  6.837E-04  1.473E-03 -1.878E-04
   1    4   32     1    32    3.3900E+00  1.2845E-03   3.3887E+00  0.000E+00  0.000E+00  0.000E+00  1.31929E+02  1.379E+00  3.462E+00  6.836E-04  1.473E-03 -1.881E-04
   1    4   33     1    33    3.3887E+00  1.2841E-03   3.3874E+00  0.000E+00  0.000E+00  0.000E+00  1.31629E+02  1.379E+00  3.462E+00  6.835E-04  1.515E-03 -2.308E-04
   1    4   34     1    34    3.3874E+00  1.2838E-03   3.3862E+00  0.000E+00  0.000E+00  0.000E+00  1.31328E+02  1.378E+00  3.462E+00  6.834E-04  1.560E-03 -2.760E-04
   1    4   35     1    35    3.3862E+00  1.2834E-03   3.3849E+00  0.000E+00  0.000E+00  0.000E+00  1.31028E+02  1.378E+00  3.461E+00  6.834E-04  1.560E-03 -2.768E-04
   1    4   36     1    36    3.3849E+00  1.2831E-03   3.3836E+00  0.000E+00  0.000E+00  0.000E+00  1.30728E+02  1.378E+00  3.461E+00  6.833E-04  1.561E-03 -2.774E-04
   1    4   37     1    37    3.3836E+00  1.2827E-03   3.3823E+00  0.000E+00  0.000E+00  0.000E+00  1.30428E+02  1.378E+00  3.461E+00  6.832E-04  1.561E-03 -2.779E-04
   1    4   38     1    38    3.3823E+00  1.2824E-03   3.3810E+00  0.000E+00  0.000E+00  0.000E+00  1.30127E+02  1.377E+00  3.460E+00  6.831E-04  1.561E-03 -2.782E-04
   1    4   39     1    39    3.3810E+00  1.2820E-03   3.3797E+00  0.000E+00  0.000E+00  0.000E+00  1.29827E+02  1.377E+00  3.460E+00  6.830E-04  1.560E-03 -2.782E-04
   1    4   40     1    40    3.3797E+00  1.2817E-03   3.3785E+00  0.000E+00  0.000E+00  0.000E+00  1.29527E+02  1.377E+00  3.460E+00  6.829E-04  1.582E-03 -3.001E-04
   1    4   41     1    41    3.3785E+00  1.2813E-03   3.3772E+00  0.000E+00  0.000E+00  0.000E+00  1.29227E+02  1.377E+00  3.459E+00  6.828E-04  1.643E-03 -3.619E-04
   1    4   42     1    42    3.3772E+00  1.2810E-03   3.3759E+00  0.000E+00  0.000E+00  0.000E+00  1.28926E+02  1.376E+00  3.459E+00  6.827E-04  1.702E-03 -4.203E-04
   1    4   43     1    43    3.3759E+00  1.2806E-03   3.3746E+00  0.000E+00  0.000E+00  0.000E+00  1.28626E+02  1.376E+00  3.459E+00  6.826E-04  1.767E-03 -4.861E-04
   1    4   44     1    44    3.3746E+00  1.2803E-03   3.3733E+00  0.000E+00  0.000E+00  0.000E+00  1.28326E+02  1.376E+00  3.458E+00  6.826E-04  1.675E-03 -3.944E-04
   1    4   45     1    45    3.3733E+00  1.2799E-03   3.3721E+00  0.000E+00  0.000E+00  0.000E+00  1.28025E+02  1.375E+00  3.458E+00  6.825E-04  1.744E-03 -4.640E-04
   1    4   46     1    46    3.3721E+00  1.2796E-03   3.3708E+00  0.000E+00  0.000E+00  0.000E+00  1.27725E+02  1.375E+00  3.458E+00  6.824E-04  1.817E-03 -5.372E-04
   1    4   47     1    47    3.3708E+00  1.2792E-03   3.3695E+00  0.000E+00  0.000E+00  0.000E+00  1.27425E+02  1.375E+00  3.457E+00  6.823E-04  1.923E-03 -6.436E-04
   1    4   48     1    48    3.3695E+00  1.2789E-03   3.3682E+00  0.000E+00  0.000E+00  0.000E+00  1.27125E+02  1.375E+00  3.457E+00  6.822E-04  2.080E-03 -8.009E-04
   1    4   49     1    49    3.3682E+00  1.2785E-03   3.3669E+00  0.000E+00  0.000E+00  0.000E+00  1.26824E+02  1.374E+00  3.457E+00  6.821E-04  2.212E-03 -9.335E-04
   1    4   50     1    50    3.3669E+00  1.2782E-03   3.3657E+00  0.000E+00  0.000E+00  0.000E+00  1.26524E+02  1.374E+00  3.456E+00  6.820E-04  2.308E-03 -1.030E-03
   1    4   51     1    51    3.3657E+00  1.2778E-03   3.3644E+00  0.000E+00  0.000E+00  0.000E+00  1.26224E+02  1.374E+00  3.456E+00  6.819E-04  2.278E-03 -9.996E-04
   1    4   52     1    52    3.3644E+00  1.2775E-03   3.3631E+00  0.000E+00  0.000E+00  0.000E+00  1.25924E+02  1.374E+00  3.456E+00  6.818E-04  2.269E-03 -9.910E-04
   1    4   53     1    53    3.3631E+00  1.2771E-03   3.3618E+00  0.000E+00  0.000E+00  0.000E+00  1.25623E+02  1.373E+00  3.456E+00  6.818E-04  2.268E-03 -9.910E-04
   1    4   54     1    54    3.3618E+00  1.2768E-03   3.3606E+00  0.000E+00  0.000E+00  0.000E+00  1.25323E+02  1.373E+00  3.455E+00  6.817E-04  2.277E-03 -9.997E-04
   1    4   55     1    55    3.3606E+00  1.2764E-03   3.3593E+00  0.000E+00  0.000E+00  0.000E+00  1.25023E+02  1.373E+00  3.455E+00  6.816E-04  2.311E-03 -1.034E-03
   1    4   56     1    56    3.3593E+00  1.2761E-03   3.3580E+00  0.000E+00  0.000E+00  0.000E+00  1.24722E+02  1.372E+00  3.455E+00  6.815E-04  2.220E-03 -9.441E-04
   1    4   57     1    57    3.3580E+00  1.2757E-03   3.3567E+00  0.000E+00  0.000E+00  0.000E+00  1.24422E+02  1.372E+00  3.454E+00  6.814E-04  2.096E-03 -8.203E-04
   1    4   58     1    58    3.3567E+00  1.2754E-03   3.3554E+00  0.000E+00  0.000E+00  0.000E+00  1.24122E+02  1.372E+00  3.454E+00  6.813E-04  1.973E-03 -6.974E-04
   1    4   59     1    59    3.3554E+00  1.2750E-03   3.3542E+00  0.000E+00  0.000E+00  0.000E+00  1.23822E+02  1.372E+00  3.454E+00  6.812E-04  1.836E-03 -5.608E-04
   1    4   60     1    60    3.3542E+00  1.2747E-03   3.3529E+00  0.000E+00  0.000E+00  0.000E+00  1.23521E+02  1.371E+00  3.453E+00  6.811E-04  1.765E-03 -4.904E-04
   1    4   61     1    61    3.3529E+00  1.2743E-03   3.3516E+00  0.000E+00  0.000E+00  0.000E+00  1.23221E+02  1.371E+00  3.453E+00  6.811E-04  1.691E-03 -4.165E-04
   1    4   62     1    62    3.3516E+00  1.2740E-03   3.3503E+00  0.000E+00  0.000E+00  0.000E+00  1.22921E+02  1.371E+00  3.453E+00  6.810E-04  1.666E-03 -3.914E-04
   1    4   63     1    63    3.3503E+00  1.2736E-03   3.3491E+00  0.000E+00  0.000E+00  0.000E+00  1.22621E+02  1.371E+00  3.452E+00  6.809E-04  1.710E-03 -4.358E-04
   1    4   64     1    64    3.3491E+00  1.2733E-03   3.3478E+00  0.000E+00  0.000E+00  0.000E+00  1.22320E+02  1.370E+00  3.452E+00  6.808E-04  1.664E-03 -3.902E-04
   1    4   65     1    65    3.3478E+00  1.2729E-03   3.3465E+00  0.000E+00  0.000E+00  0.000E+00  1.22020E+02  1.370E+00  3.452E+00  6.807E-04  1.627E-03 -3.536E-04
   1    4   66     1    66    3.3465E+00  1.2726E-03   3.3453E+00  0.000E+00  0.000E+00  0.000E+00  1.21720E+02  1.370E+00  3.451E+00  6.806E-04  1.580E-03 -3.072E-04
   1    4   67     1    67    3.3453E+00  1.2722E-03   3.3440E+00  0.000E+00  0.000E+00  0.000E+00  1.21419E+02  1.369E+00  3.451E+00  6.805E-04  1.555E-03 -2.827E-04
   1    4   68     1    68    3.3440E+00  1.2719E-03   3.3427E+00  0.000E+00  0.000E+00  0.000E+00  1.21119E+02  1.369E+00  3.451E+00  6.804E-04  1.554E-03 -2.824E-04
   1    4   69     1    69    3.3427E+00  1.2715E-03   3.3414E+00  0.000E+00  0.000E+00  0.000E+00  1.20819E+02  1.369E+00  3.450E+00  6.803E-04  1.554E-03 -2.821E-04
   1    4   70     1    70    3.3414E+00  1.2712E-03   3.3402E+00  0.000E+00  0.000E+00  0.000E+00  1.20519E+02  1.369E+00  3.450E+00  6.803E-04  1.553E-03 -2.815E-04
   1    4   71     1    71    3.3402E+00  1.2708E-03   3.3389E+00  0.000E+00  0.000E+00  0.000E+00  1.20218E+02  1.368E+00  3.450E+00  6.802E-04  1.528E-03 -2.573E-04
   1    4   72     1    72    3.3389E+00  1.2705E-03   3.3376E+00  0.000E+00  0.000E+00  0.000E+00  1.19918E+02  1.368E+00  3.449E+00  6.801E-04  1.466E-03 -1.952E-04
   1    4   73     1    73    3.3376E+00  1.2701E-03   3.3364E+00  0.000E+00  0.000E+00  0.000E+00  1.19618E+02  1.368E+00  3.449E+00  6.800E-04  1.465E-03 -1.950E-04
   1    4   74     1    74    3.3364E+00  1.2698E-03   3.3351E+00  0.000E+00  0.000E+00  0.000E+00  1.19318E+02  1.368E+00  3.449E+00  6.799E-04  1.465E-03 -1.947E-04
   1    4   75     1    75    3.3351E+00  1.2694E-03   3.3338E+00  0.000E+00  0.000E+00  0.000E+00  1.19017E+02  1.367E+00  3.448E+00  6.798E-04  1.464E-03 -1.943E-04
   1    4   76     1    76    3.3338E+00  1.2691E-03   3.3326E+00  0.000E+00  0.000E+00  0.000E+00  1.18717E+02  1.367E+00  3.448E+00  6.797E-04  1.463E-03 -1.940E-04
   1    4   77     1    77    3.3326E+00  1.2687E-03   3.3313E+00  0.000E+00  0.000E+00  0.000E+00  1.18417E+02  1.367E+00  3.448E+00  6.796E-04  1.463E-03 -1.936E-04
   1    4   78     1    78    3.3313E+00  1.2684E-03   3.3300E+00  0.000E+00  0.000E+00  0.000E+00  1.18117E+02  1.367E+00  3.447E+00  6.796E-04  1.446E-03 -1.772E-04
   1    4   79     1    79    3.3300E+00  1.2680E-03   3.3287E+00  0.000E+00  0.000E+00  0.000E+00  1.17816E+02  1.366E+00  3.447E+00  6.795E-04  1.425E-03 -1.564E-04
   1    4   80     1    80    3.3287E+00  1.2677E-03   3.3275E+00  0.000E+00  0.000E+00  0.000E+00  1.17516E+02  1.366E+00  3.447E+00  6.794E-04  1.412E-03 -1.439E-04
   1    4   81     1    81    3.3275E+00  1.2673E-03   3.3262E+00  0.000E+00  0.000E+00  0.000E+00  1.17216E+02  1.366E+00  3.446E+00  6.793E-04  1.411E-03 -1.438E-04
   1    4   82     1    82    3.3262E+00  1.2670E-03   3.3249E+00  0.000E+00  0.000E+00  0.000E+00  1.16915E+02  1.365E+00  3.446E+00  6.792E-04  1.411E-03 -1.438E-04
   1    4   83     1    83    3.3249E+00  1.2667E-03   3.3237E+00  0.000E+00  0.000E+00  0.000E+00  1.16615E+02  1.365E+00  3.446E+00  6.791E-04  1.410E-03 -1.437E-04
   1    4   84     1    84    3.3237E+00  1.2663E-03   3.3224E+00  0.000E+00  0.000E+00  0.000E+00  1.16315E+02  1.365E+00  3.445E+00  6.790E-04  1.410E-03 -1.436E-04
   1    4   85     1    85    3.3224E+00  1.2660E-03   3.3211E+00  0.000E+00  0.000E+00  0.000E+00  1.16015E+02  1.365E+00  3.445E+00  6.789E-04  1.410E-03 -1.435E-04
   1    4   86     1    86    3.3211E+00  1.2656E-03   3.3199E+00  0.000E+00  0.000E+00  0.000E+00  1.15714E+02  1.364E+00  3.445E+00  6.788E-04  1.409E-03 -1.435E-04
   1    4   87     1    87    3.3199E+00  1.2653E-03   3.3186E+00  0.000E+00  0.000E+00  0.000E+00  1.15414E+02  1.364E+00  3.445E+00  6.788E-04  1.409E-03 -1.436E-04
   1    4   88     1    88    3.3186E+00  1.2649E-03   3.3173E+00  0.000E+00  0.000E+00  0.000E+00  1.15114E+02  1.364E+00  3.444E+00  6.787E-04  1.409E-03 -1.436E-04
   1    4   89     1    89    3.3173E+00  1.2646E-03   3.3161E+00  0.000E+00  0.000E+00  0.000E+00  1.14814E+02  1.364E+00  3.444E+00  6.786E-04  1.399E-03 -1.342E-04
   1    4   90     1    90    3.3161E+00  1.2642E-03   3.3148E+00  0.000E+00  0.000E+00  0.000E+00  1.14513E+02  1.363E+00  3.444E+00  6.785E-04  1.399E-03 -1.345E-04
   1    4   91     1    91    3.3148E+00  1.2639E-03   3.3136E+00  0.000E+00  0.000E+00  0.000E+00  1.14213E+02  1.363E+00  3.443E+00  6.784E-04  1.399E-03 -1.348E-04
   1    4   92     1    92    3.3136E+00  1.2635E-03   3.3123E+00  0.000E+00  0.000E+00  0.000E+00  1.13913E+02  1.363E+00  3.443E+00  6.783E-04  1.399E-03 -1.353E-04
   1    4   93     1    93    3.3123E+00  1.2632E-03   3.3110E+00  0.000E+00  0.000E+00  0.000E+00  1.13612E+02  1.362E+00  3.443E+00  6.782E-04  1.399E-03 -1.360E-04
   1    4   94     1    94    3.3110E+00  1.2628E-03   3.3098E+00  0.000E+00  0.000E+00  0.000E+00  1.13312E+02  1.362E+00  3.442E+00  6.781E-04  1.400E-03 -1.368E-04
   1    4   95     1    95    3.3098E+00  1.2625E-03   3.3085E+00  0.000E+00  0.000E+00  0.000E+00  1.13012E+02  1.362E+00  3.442E+00  6.781E-04  1.400E-03 -1.378E-04
   1    4   96     1    96    3.3085E+00  1.2621E-03   3.3072E+00  0.000E+00  0.000E+00  0.000E+00  1.12712E+02  1.362E+00  3.442E+00  6.780E-04  1.401E-03 -1.390E-04
   1    4   97     1    97    3.3072E+00  1.2618E-03   3.3060E+00  0.000E+00  0.000E+00  0.000E+00  1.12411E+02  1.361E+00  3.441E+00  6.779E-04  1.400E-03 -1.378E-04
   1    4   98     1    98    3.3060E+00  1.2614E-03   3.3047E+00  0.000E+00  0.000E+00  0.000E+00  1.12111E+02  1.361E+00  3.441E+00  6.778E-04  1.388E-03 -1.260E-04
   1    4   99     1    99    3.3047E+00  1.2611E-03   3.3035E+00  0.000E+00  0.000E+00  0.000E+00  1.11811E+02  1.361E+00  3.441E+00  6.777E-04  1.376E-03 -1.146E-04
   1    4  100     1   100    3.3035E+00  1.2607E-03   3.3022E+00  0.000E+00  0.000E+00  0.000E+00  1.11511E+02  1.361E+00  3.440E+00  6.776E-04  1.371E-03 -1.096E-04



1
  VOLUMETRIC BUDGET FOR UNSATURATED ZONE BENEATH STREAMS AT END OF TIME STEP    30 STRESS PERIOD  45
  ------------------------------------------------------------------------------------------------

    CUMULATIVE VOLUMES             L**3    RATES FOR THIS TIME STEP         L**3/T
    ------------------                     ------------------------


          STREAM LOSS =     34855864.0000            STREAM LOSS =            0.1278
    CHANGE IN STORAGE =      1537630.8750      CHANGE IN STORAGE =       -2.9312E-02
       RECHARGE TO GW =     33325848.0000         RECHARGE TO GW =            0.1571

             TOTAL IN =     34855864.0000               TOTAL IN =            0.1571

            TOTAL OUT =     34863480.0000              TOTAL OUT =            0.1571

             IN - OUT =        -7616.0000               IN - OUT =       -2.1324E-05

  PERCENT DISCREPANCY =           -0.01      PERCENT DISCREPANCY =            -0.00



1
              HEAD IN LAYER 1 AT END OF TIME STEP 30 IN STRESS PERIOD 45
  ---------------------------------------------------------------------------

          1      2      3      4      5      6      7      8      9     10
         11     12     13     14     15     16     17     18     19     20
         21     22     23     24     25     26     27     28     29     30
         31     32     33     34     35     36     37     38     39     40
         41     42     43     44     45     46     47     48     49     50
         51     52     53     54     55     56     57     58     59     60
         61     62     63     64     65     66     67     68     69     70
         71     72     73     74     75     76     77     78     79     80
         81     82     83     84     85     86     87     88     89     90
         91     92     93     94     95     96     97     98     99    100
 .........................................................................
   1  83.4 83.4 83.3 83.2 83.0 82.8 82.6 82.4 82.1 81.7
      81.3 80.9 80.5 80.0 79.4 78.8 78.2 77.5 76.8 76.1
      75.3 74.4 73.5 72.6 71.6 70.6 69.5 68.3 67.1 65.8
      64.5 63.1 61.6 60.0 58.4 56.7 54.8 52.9 50.9 48.7
      46.4 44.0 41.3 38.5 35.3 31.9 27.9 23.2 17.5 11.1
      10.5 10.8 11.0 11.5 13.0 16.6 20.5 24.1 27.4 30.3
      32.9 35.4 37.6 39.7 41.6 43.5 45.2 46.8 48.4 49.9
      51.3 52.6 53.9 55.2 56.3 57.5 58.6 59.6 60.6 61.6
      62.5 63.4 64.3 65.1 65.9 66.7 67.4 68.1 68.8 69.5
      70.1 70.7 71.3 71.9 72.4 73.0 73.5 74.0 74.5 75.0
   2  83.4 83.4 83.3 83.2 83.0 82.8 82.6 82.4 82.1 81.7
      81.3 80.9 80.5 80.0 79.4 78.8 78.2 77.5 76.8 76.1
      75.3 74.4 73.5 72.6 71.6 70.6 69.5 68.3 67.1 65.8
      64.5 63.1 61.6 60.0 58.4 56.7 54.8 52.9 50.9 48.7
      46.4 44.0 41.3 38.5 35.3 31.9 27.9 23.2 17.3 9.2
      10.2 10.8 11.0 11.2 12.4 16.4 20.5 24.1 27.4 30.3
      32.9 35.4 37.6 39.7 41.6 43.5 45.2 46.8 48.4 49.9
      51.3 52.6 53.9 55.2 56.4 57.5 58.6 59.6 60.6 61.6
      62.5 63.4 64.3 65.1 65.9 66.7 67.4 68.1 68.8 69.5
      70.1 70.7 71.3 71.9 72.4 73.0 73.5 74.0 74.5 75.0
   3  83.4 83.4 83.3 83.2 83.0 82.8 82.6 82.4 82.1 81.7
      81.3 80.9 80.5 80.0 79.4 78.8 78.2 77.5 76.8 76.1
      75.3 74.4 73.5 72.6 71.6 70.6 69.5 68.3 67.1 65.8
      64.5 63.1 61.6 60.0 58.4 56.7 54.8 52.9 50.9 48.7
      46.4 44.0 41.4 38.5 35.4 31.9 28.0 23.3 17.1 3.4
      10.0 10.9 10.9 10.6 10.9 15.9 20.3 24.1 27.4 30.3
      32.9 35.4 37.6 39.7 41.6 43.5 45.2 46.9 48.4 49.9
      51.3 52.7 53.9 55.2 56.4 57.5 58.6 59.6 60.6 61.6
      62.5 63.4 64.3 65.1 65.9 66.7 67.4 68.1 68.8 69.5
      70.1 70.7 71.3 71.9 72.5 73.0 73.5 74.0 74.5 75.0
   4  83.4 83.4 83.3 83.2 83.0 82.9 82.6 82.4 82.1 81.7
      81.3 80.9 80.5 80.0 79.4 78.8 78.2 77.6 76.8 76.1
      75.3 74.4 73.5 72.6 71.6 70.6 69.5 68.3 67.1 65.8
      64.5 63.1 61.6 60.0 58.4 56.7 54.9 52.9 50.9 48.7
      46.5 44.0 41.4 38.5 35.4 31.9 28.0 23.5 17.7 9.4
      10.8 11.1 10.8 10.0 8.3 15.3 20.2 24.1 27.4 30.3
      33.0 35.4 37.6 39.7 41.7 43.5 45.2 46.9 48.4 49.9
      51.3 52.7 53.9 55.2 56.4 57.5 58.6 59.6 60.6 61.6
      62.5 63.4 64.3 65.1 65.9 66.7 67.4 68.1 68.8 69.5
      70.1 70.7 71.3 71.9 72.5 73.0 73.5 74.0 74.5 75.0
   5  83.4 83.4 83.3 83.2 83.0 82.8 82.6 82.4 82.1 81.7
      81.3 80.9 80.5 80.0 79.4 78.8 78.2 77.5 76.8 76.1
      75.3 74.4 73.5 72.6 71.6 70.6 69.5 68.3 67.1 65.8
      64.5 63.1 61.6 60.0 58.4 56.7 54.8 52.9 50.9 48.7
      46.4 44.0 41.4 38.5 35.4 31.9 28.0 23.6 18.3 12.4
      11.5 11.2 10.7 9.4 3.0 14.7 20.1 24.0 27.4 30.3
      32.9 35.4 37.6 39.7 41.6 43.5 45.2 46.9 48.4 49.9
      51.3 52.7 53.9 55.2 56.4 57.5 58.6 59.6 60.6 61.6
      62.5 63.4 64.3 65.1 65.9 66.7 67.4 68.1 68.8 69.5
      70.1 70.7 71.3 71.9 72.5 73.0 73.5 74.0 74.5 75.0
   6  83.4 83.4 83.3 83.2 83.0 82.8 82.6 82.4 82.1 81.7
      81.3 80.9 80.5 80.0 79.4 78.8 78.2 77.5 76.8 76.1
      75.3 74.4 73.5 72.6 71.6 70.6 69.5 68.3 67.1 65.8
      64.5 63.1 61.6 60.0 58.4 56.7 54.8 52.9 50.9 48.7
      46.4 44.0 41.3 38.5 35.4 31.9 28.1 23.7 18.9 14.1
      12.1 11.3 10.6 9.6 8.0 14.9 20.0 24.0 27.3 30.3
      32.9 35.4 37.6 39.7 41.6 43.5 45.2 46.8 48.4 49.9
      51.3 52.6 53.9 55.2 56.4 57.5 58.6 59.6 60.6 61.6
      62.5 63.4 64.3 65.1 65.9 66.7 67.4 68.1 68.8 69.5
      70.1 70.7 71.3 71.9 72.4 73.0 73.5 74.0 74.5 75.0
   7  83.4 83.4 83.3 83.2 83.0 82.8 82.6 82.4 82.1 81.7
      81.3 80.9 80.5 80.0 79.4 78.8 78.2 77.5 76.8 76.1
      75.3 74.4 73.5 72.6 71.6 70.6 69.5 68.3 67.1 65.8
      64.5 63.1 61.6 60.0 58.4 56.7 54.8 52.9 50.9 48.7
      46.4 44.0 41.3 38.5 35.4 31.9 28.1 23.8 19.2 14.8
      12.5 11.4 10.7 9.8 9.7 15.2 20.0 24.0 27.3 30.3
      32.9 35.4 37.6 39.7 41.6 43.5 45.2 46.8 48.4 49.9
      51.3 52.6 53.9 55.2 56.3 57.5 58.6 59.6 60.6 61.6
      62.5 63.4 64.3 65.1 65.9 66.7 67.4 68.1 68.8 69.5
      70.1 70.7 71.3 71.9 72.4 73.0 73.5 74.0 74.5 75.0

 HEAD WILL BE SAVED ON UNIT   51 AT END OF TIME STEP   30, STRESS PERIOD   45
1
  VOLUMETRIC BUDGET FOR ENTIRE MODEL AT END OF TIME STEP   30, STRESS PERIOD  45
  ------------------------------------------------------------------------------

     CUMULATIVE VOLUMES      L**3       RATES FOR THIS TIME STEP      L**3/T
     ------------------                 ------------------------

           IN:                                      IN:
           ---                                      ---
             STORAGE     =   114080544.0000               STORAGE     =           0.3281
       CONSTANT HEAD     =           0.0000         CONSTANT HEAD     =           0.0000
               WELLS     =           0.0000                 WELLS     =           0.0000
     HEAD DEP BOUNDS     =     2903446.2500       HEAD DEP BOUNDS     =       8.5433E-02
      STREAM LEAKAGE     =    33325562.0000        STREAM LEAKAGE     =           0.1571

                TOTAL IN =   150309552.0000                  TOTAL IN =           0.5707

          OUT:                                     OUT:
          ----                                     ----
             STORAGE     =     3634496.2500               STORAGE     =           0.0000
       CONSTANT HEAD     =           0.0000         CONSTANT HEAD     =           0.0000
               WELLS     =   130289184.0000                 WELLS     =           0.5707
     HEAD DEP BOUNDS     =    16385952.0000       HEAD DEP BOUNDS     =           0.0000
      STREAM LEAKAGE     =           0.0000        STREAM LEAKAGE     =           0.0000

               TOTAL OUT =   150309632.0000                 TOTAL OUT =           0.5707

                IN - OUT =         -80.0000                  IN - OUT =      -1.1921E-07

     PERCENT DISCREPANCY =          -0.00         PERCENT DISCREPANCY =          -0.00






         TIME SUMMARY AT END OF TIME STEP   30 IN STRESS PERIOD   45
                    SECONDS     MINUTES      HOURS       DAYS        YEARS
                    -----------------------------------------------------------
   TIME STEP LENGTH 2.49961E+05  4166.0      69.434      2.8931     7.92080E-03
 STRESS PERIOD TIME 2.59200E+06  43200.      720.00      30.000     8.21355E-02
         TOTAL TIME 1.16640E+08 1.94400E+06  32400.      1350.0      3.6961    
1
1
                            STRESS PERIOD NO.   46, LENGTH =   2592000.    
                            -----------------------------------------------

                              NUMBER OF TIME STEPS =    30

                               MULTIPLIER FOR DELT =     1.100

                            INITIAL TIME STEP SIZE =   15757.40    

 REUSING NON-PARAMETER WELLS FROM LAST STRESS PERIOD

      1 WELL 

 REUSING NON-PARAMETER GHB CELLS FROM LAST STRESS PERIOD

      7 GHB CELLS



 CLASSIFICATION & COUNT OF STREAM SEGMENTS BASED ON SOURCE OF INFLOW:

                HEADWATER     DIVERSION     RECEIVES TRIBUTARY FLOW
                ---------     ---------     -----------------------
                     1              0               0



                    INPUT DATA FOR EACH STREAM SEGMENT
 ---------------------------------------------------------------------------------------------

 SEGMENT    SEG.     INFLOW   OVERLAND   STREAM    STREAM   ICALC  OUTFLOW  DIVERSION PRIORITY
    NO.    LENGTH     RATE     RUNOFF      ET       PPT.    METH.  TO SEG.  FROM SEG.    NO.

      1  2.000E+04 5.000E-01 0.000E+00 0.000E+00 0.000E+00    2        0        0        0


         STREAMBED PROPERTIES AND STREAM DIMENSIONS

 SEGMENT     BED HYD. COND.      BED THICKNESS     ELEV.-TOP OF BED     WIDTH OF STREAM     DEPTH OF STREAM    STREAM ROUGHNESS
    No.     UPPER     LOWER     UPPER     LOWER     UPPER     LOWER     UPPER     LOWER     UPPER     LOWER   CHANNEL      BANK

     1  3.500E-07 3.500E-07                                                                                 3.000E-02 4.000E-02

  EIGHT POINT CROSS-SECTION DATA FOR SEGMENTS WITH ICALC = 2
    X VALUES X VALUES START FROM LEFT SIDE LOOKING DOWNSTREAM

     SEGMENT NO.        X1        X2        X3        X4        X5        X6        X7        X8
            1      0.000E+00 2.000E+00 4.000E+00 6.000E+00 8.000E+00 1.000E+01 1.200E+01 1.400E+01

    Z VALUES ARE RELATIVE TO STREAMBED ELEVATION

     SEGMENT NO.          Z1        Z2        Z3        Z4        Z5        Z6        Z7        Z8
            1      6.000E+00 4.500E+00 3.500E+00 0.000E+00 3.000E-01 3.500E+00 4.500E+00 6.000E+00



 
 SOLVING FOR HEAD 
                                                   Max.-Head-Change                         Max.-Flux-Residual
  Residual-Control   Outer-Iter.   Inner-Iter.     Column Row Layer    Maximum-Head-Change  Column Row Layer    Maximum-Flux-Residual          L2-NORM 
          0                 1           2            50    3     1      -0.1193673224E-01      50    3    1        -0.4629229609E-02      0.1533179035E-01
          0                 2           2            50    3     1       0.1162487677E-02      50    3    1         0.4609114263E-03      0.1492713630E-02
          0                 3           1            50    3     1      -0.1035436209E-03      50    3    1        -0.4150077450E-04      0.1370582008E-03
          0                 4           1            50    3     1       0.8218145171E-05      50    3    1         0.3324058831E-05      0.1116997731E-04
          0                 5           1            50    3     1      -0.5724964081E-06      50    3    1        -0.2336787155E-06      0.7923283582E-06

    ------------------------------------------------
       NWT REQUIRED            5 OUTER ITERATIONS 
       AND A TOTAL OF          7 INNER ITERATIONS.
    ------------------------------------------------

 NO OUTPUT CONTROL FOR STRESS PERIOD   46   TIME STEP    1
 
 WELLS WITH REDUCED PUMPING FOR STRESS PERIOD    46 TIME STEP     1
   LAY   ROW   COL         APPL.Q          ACT.Q        GW-HEAD       CELL-BOT
     1     3    50  -0.145024E+01  -0.322985E+00   0.341936E+01   0.000000E+00
     1     5    55  -0.145024E+01  -0.252607E+00   0.294841E+01   0.000000E+00
 
 
 SOLVING FOR HEAD 
                                                   Max.-Head-Change                         Max.-Flux-Residual
  Residual-Control   Outer-Iter.   Inner-Iter.     Column Row Layer    Maximum-Head-Change  Column Row Layer    Maximum-Flux-Residual          L2-NORM 
          0                 1           2            50    3     1      -0.6982840985E-02      50    3    1        -0.2483473734E-02      0.1453826289E-01
          0                 2           2            50    3     1       0.6698882773E-03      50    3    1         0.2476365793E-03      0.1414004217E-02
          0                 3           1            50    3     1      -0.5949028693E-04      50    3    1        -0.2229366597E-04      0.1303371392E-03
          0                 4           1            50    3     1       0.4720873268E-05      50    3    1         0.1785666646E-05      0.1066964492E-04
          0                 5           1            50    3     1      -0.3288726883E-06      50    3    1        -0.1255308825E-06      0.7591553025E-06

    ------------------------------------------------
       NWT REQUIRED            5 OUTER ITERATIONS 
       AND A TOTAL OF          7 INNER ITERATIONS.
    ------------------------------------------------

 NO OUTPUT CONTROL FOR STRESS PERIOD   46   TIME STEP    2
 
 WELLS WITH REDUCED PUMPING FOR STRESS PERIOD    46 TIME STEP     2
   LAY   ROW   COL         APPL.Q          ACT.Q        GW-HEAD       CELL-BOT
     1     3    50  -0.145024E+01  -0.321937E+00   0.341300E+01   0.000000E+00
     1     5    55  -0.145024E+01  -0.251789E+00   0.294305E+01   0.000000E+00
 
 
 SOLVING FOR HEAD 
                                                   Max.-Head-Change                         Max.-Flux-Residual
  Residual-Control   Outer-Iter.   Inner-Iter.     Column Row Layer    Maximum-Head-Change  Column Row Layer    Maximum-Flux-Residual          L2-NORM 
          0                 1           2             1    1     1      -0.5289126738E-02      50    3    1        -0.1228062536E-02      0.1428948755E-01
          0                 2           2             1    1     1       0.5109811274E-03      50    3    1         0.1225862340E-03      0.1389121617E-02
          0                 3           1             1    1     1      -0.4484382918E-04      50    3    1        -0.1103466122E-04      0.1283661306E-03
          0                 4           1             1    1     1       0.3525982737E-05      50    3    1         0.8838569789E-06      0.1054581822E-04
          0                 5           1             1    1     1      -0.2444019537E-06      50    3    1        -0.6213448478E-07      0.7524754985E-06

    ------------------------------------------------
       NWT REQUIRED            5 OUTER ITERATIONS 
       AND A TOTAL OF          7 INNER ITERATIONS.
    ------------------------------------------------

 NO OUTPUT CONTROL FOR STRESS PERIOD   46   TIME STEP    3
 
 WELLS WITH REDUCED PUMPING FOR STRESS PERIOD    46 TIME STEP     3
   LAY   ROW   COL         APPL.Q          ACT.Q        GW-HEAD       CELL-BOT
     1     3    50  -0.144981E+01  -0.321256E+00   0.340944E+01   0.000000E+00
     1     5    55  -0.144981E+01  -0.251242E+00   0.293995E+01   0.000000E+00
 
 
 SOLVING FOR HEAD 
                                                   Max.-Head-Change                         Max.-Flux-Residual
  Residual-Control   Outer-Iter.   Inner-Iter.     Column Row Layer    Maximum-Head-Change  Column Row Layer    Maximum-Flux-Residual          L2-NORM 
          0                 1           2             1    1     1      -0.5815504845E-02       1    1    1        -0.9100309881E-03      0.1424833583E-01
          0                 2           2             1    1     1       0.5602285603E-03       1    1    1         0.9100290976E-04      0.1384783735E-02
          0                 3           1             1    1     1      -0.4904572197E-04       1    1    1        -0.8190282465E-05      0.1281984001E-03
          0                 4           1             1    1     1       0.3849119188E-05       1    1    1         0.6560415571E-06      0.1056523208E-04
          0                 5           1             1    1     1      -0.2664543953E-06       1    4    1         0.5169799167E-07      0.7559906837E-06

    ------------------------------------------------
       NWT REQUIRED            5 OUTER ITERATIONS 
       AND A TOTAL OF          7 INNER ITERATIONS.
    ------------------------------------------------

 NO OUTPUT CONTROL FOR STRESS PERIOD   46   TIME STEP    4
 
 WELLS WITH REDUCED PUMPING FOR STRESS PERIOD    46 TIME STEP     4
   LAY   ROW   COL         APPL.Q          ACT.Q        GW-HEAD       CELL-BOT
     1     3    50  -0.145020E+01  -0.320928E+00   0.340691E+01   0.000000E+00
     1     5    55  -0.145020E+01  -0.250973E+00   0.293775E+01   0.000000E+00
 
 
 SOLVING FOR HEAD 
                                                   Max.-Head-Change                         Max.-Flux-Residual
  Residual-Control   Outer-Iter.   Inner-Iter.     Column Row Layer    Maximum-Head-Change  Column Row Layer    Maximum-Flux-Residual          L2-NORM 
          0                 1           2             1    1     1      -0.6394079410E-02       1    1    1        -0.9098697318E-03      0.1423439044E-01
          0                 2           2             1    1     1       0.6141102898E-03       1    1    1         0.9098674372E-04      0.1383450577E-02
          0                 3           1             1    1     1      -0.5361994512E-04       1    1    1        -0.8188831639E-05      0.1282942413E-03
          0                 4           1             1    1     1       0.4199168109E-05       1    1    1         0.6559252945E-06      0.1060681184E-04
          0                 5           1             1    1     1      -0.2902423147E-06       1    4    1         0.5429230754E-07      0.7612583190E-06

    ------------------------------------------------
       NWT REQUIRED            5 OUTER ITERATIONS 
       AND A TOTAL OF          7 INNER ITERATIONS.
    ------------------------------------------------

 NO OUTPUT CONTROL FOR STRESS PERIOD   46   TIME STEP    5
 
 WELLS WITH REDUCED PUMPING FOR STRESS PERIOD    46 TIME STEP     5
   LAY   ROW   COL         APPL.Q          ACT.Q        GW-HEAD       CELL-BOT
     1     3    50  -0.145010E+01  -0.320628E+00   0.340523E+01   0.000000E+00
     1     5    55  -0.145010E+01  -0.250730E+00   0.293627E+01   0.000000E+00
 
 
 SOLVING FOR HEAD 
                                                   Max.-Head-Change                         Max.-Flux-Residual
  Residual-Control   Outer-Iter.   Inner-Iter.     Column Row Layer    Maximum-Head-Change  Column Row Layer    Maximum-Flux-Residual          L2-NORM 
          0                 1           2             1    1     1      -0.7030007519E-02       1    1    1        -0.9096929114E-03      0.1422931580E-01
          0                 2           2             1    1     1       0.6730608721E-03       1    1    1         0.9096901413E-04      0.1383932201E-02
          0                 3           1             1    1     1      -0.5859851060E-04       1    1    1        -0.8187240802E-05      0.1285591856E-03
          0                 4           1             1    1     1       0.4578155987E-05       1    4    1        -0.6770609247E-06      0.1066260101E-04
          0                 5           1             1    1     1      -0.3158743508E-06       1    4    1         0.5688184501E-07      0.7677001332E-06

    ------------------------------------------------
       NWT REQUIRED            5 OUTER ITERATIONS 
       AND A TOTAL OF          7 INNER ITERATIONS.
    ------------------------------------------------

 NO OUTPUT CONTROL FOR STRESS PERIOD   46   TIME STEP    6
 
 WELLS WITH REDUCED PUMPING FOR STRESS PERIOD    46 TIME STEP     6
   LAY   ROW   COL         APPL.Q          ACT.Q        GW-HEAD       CELL-BOT
     1     3    50  -0.144992E+01  -0.320382E+00   0.340398E+01   0.000000E+00
     1     5    55  -0.144992E+01  -0.250531E+00   0.293517E+01   0.000000E+00
 
 
 SOLVING FOR HEAD 
                                                   Max.-Head-Change                         Max.-Flux-Residual
  Residual-Control   Outer-Iter.   Inner-Iter.     Column Row Layer    Maximum-Head-Change  Column Row Layer    Maximum-Flux-Residual          L2-NORM 
          0                 1           2             1    1     1      -0.7728952477E-02       1    1    1        -0.9094991852E-03      0.1423123542E-01
          0                 2           2             1    1     1       0.7375579483E-03       1    1    1         0.9094958587E-04      0.1384156824E-02
          0                 3           1             1    1     1      -0.6401656058E-04       1    1    1        -0.8185497904E-05      0.1287889656E-03
          0                 4           1             1    1     1       0.4988291095E-05       1    4    1        -0.7005047671E-06      0.1071675902E-04
          0                 5           1             1    1     1      -0.3434667837E-06       1    4    1         0.5945569725E-07      0.7742465777E-06

    ------------------------------------------------
       NWT REQUIRED            5 OUTER ITERATIONS 
       AND A TOTAL OF          7 INNER ITERATIONS.
    ------------------------------------------------

 NO OUTPUT CONTROL FOR STRESS PERIOD   46   TIME STEP    7
 
 WELLS WITH REDUCED PUMPING FOR STRESS PERIOD    46 TIME STEP     7
   LAY   ROW   COL         APPL.Q          ACT.Q        GW-HEAD       CELL-BOT
     1     3    50  -0.144983E+01  -0.320179E+00   0.340285E+01   0.000000E+00
     1     5    55  -0.144983E+01  -0.250371E+00   0.293421E+01   0.000000E+00
 
 
 SOLVING FOR HEAD 
                                                   Max.-Head-Change                         Max.-Flux-Residual
  Residual-Control   Outer-Iter.   Inner-Iter.     Column Row Layer    Maximum-Head-Change  Column Row Layer    Maximum-Flux-Residual          L2-NORM 
          0                 1           2             1    1     1      -0.8497135535E-02       1    1    1        -0.9092870479E-03      0.1423588482E-01
          0                 2           2             1    1     1       0.8081270820E-03       1    1    1         0.9092830732E-04      0.1384596297E-02
          0                 3           1             1    1     1      -0.6991277372E-04       1    1    1        -0.8183589387E-05      0.1290359762E-03
          0                 4           1             1    1     1       0.5431991195E-05       1    4    1        -0.7233369921E-06      0.1077332327E-04
          0                 5           1             1    1     1      -0.3731449370E-06       1    4    1         0.6200306757E-07      0.7811418354E-06

    ------------------------------------------------
       NWT REQUIRED            5 OUTER ITERATIONS 
       AND A TOTAL OF          7 INNER ITERATIONS.
    ------------------------------------------------

 NO OUTPUT CONTROL FOR STRESS PERIOD   46   TIME STEP    8
 
 WELLS WITH REDUCED PUMPING FOR STRESS PERIOD    46 TIME STEP     8
   LAY   ROW   COL         APPL.Q          ACT.Q        GW-HEAD       CELL-BOT
     1     3    50  -0.144987E+01  -0.319994E+00   0.340167E+01   0.000000E+00
     1     5    55  -0.144987E+01  -0.250224E+00   0.293321E+01   0.000000E+00
 
 
 SOLVING FOR HEAD 
                                                   Max.-Head-Change                         Max.-Flux-Residual
  Residual-Control   Outer-Iter.   Inner-Iter.     Column Row Layer    Maximum-Head-Change  Column Row Layer    Maximum-Flux-Residual          L2-NORM 
          0                 1           2             1    1     1      -0.9341387462E-02       1    1    1        -0.9090548258E-03      0.1424208242E-01
          0                 2           2             1    1     1       0.8853465842E-03       1    1    1         0.9090500995E-04      0.1385113396E-02
          0                 3           1             1    1     1      -0.7632977288E-04       1    1    1        -0.8181500187E-05      0.1292880097E-03
          0                 4           1             1    1     1       0.5911911304E-05       1    4    1        -0.7454976902E-06      0.1083088531E-04
          0                 5           1             1    1     1      -0.4050448352E-06       1    4    1         0.6451353585E-07      0.7882714932E-06

    ------------------------------------------------
       NWT REQUIRED            5 OUTER ITERATIONS 
       AND A TOTAL OF          7 INNER ITERATIONS.
    ------------------------------------------------

 NO OUTPUT CONTROL FOR STRESS PERIOD   46   TIME STEP    9
 
 WELLS WITH REDUCED PUMPING FOR STRESS PERIOD    46 TIME STEP     9
   LAY   ROW   COL         APPL.Q          ACT.Q        GW-HEAD       CELL-BOT
     1     3    50  -0.144994E+01  -0.319796E+00   0.340038E+01   0.000000E+00
     1     5    55  -0.144994E+01  -0.250071E+00   0.293212E+01   0.000000E+00
 
 
 SOLVING FOR HEAD 
                                                   Max.-Head-Change                         Max.-Flux-Residual
  Residual-Control   Outer-Iter.   Inner-Iter.     Column Row Layer    Maximum-Head-Change  Column Row Layer    Maximum-Flux-Residual          L2-NORM 
          0                 1           2             1    1     1      -0.1026921058E-01       1    1    1        -0.9088006691E-03      0.1424614533E-01
          0                 2           2             1    1     1       0.9698532892E-03       1    1    1         0.9087950751E-04      0.1385574850E-02
          0                 3           1             1    1     1      -0.8331461203E-04       1    1    1        -0.8179213683E-05      0.1295320802E-03
          0                 4           1             1    1     1       0.6430975565E-05       1    4    1        -0.7669330131E-06      0.1088807090E-04
          0                 5           1             1    1     1      -0.4393149977E-06       1    4    1         0.6697700528E-07      0.7955244075E-06

    ------------------------------------------------
       NWT REQUIRED            5 OUTER ITERATIONS 
       AND A TOTAL OF          7 INNER ITERATIONS.
    ------------------------------------------------

 NO OUTPUT CONTROL FOR STRESS PERIOD   46   TIME STEP   10
 
 WELLS WITH REDUCED PUMPING FOR STRESS PERIOD    46 TIME STEP    10
   LAY   ROW   COL         APPL.Q          ACT.Q        GW-HEAD       CELL-BOT
     1     3    50  -0.144988E+01  -0.319574E+00   0.339911E+01   0.000000E+00
     1     5    55  -0.144988E+01  -0.249899E+00   0.293107E+01   0.000000E+00
 
 
 SOLVING FOR HEAD 
                                                   Max.-Head-Change                         Max.-Flux-Residual
  Residual-Control   Outer-Iter.   Inner-Iter.     Column Row Layer    Maximum-Head-Change  Column Row Layer    Maximum-Flux-Residual          L2-NORM 
          0                 1           2             1    1     1      -0.1128883870E-01       1    1    1        -0.9085225403E-03      0.1424785153E-01
          0                 2           2             1    1     1       0.1062348114E-02       1    1    1         0.9085159489E-04      0.1386121255E-02
          0                 3           1             1    1     1      -0.9091924214E-04       1    1    1        -0.8176711527E-05      0.1297706668E-03
          0                 4           1             1    1     1       0.6992404605E-05       1    4    1        -0.7875949066E-06      0.1094468100E-04
          0                 5           1             1    1     1      -0.4761177043E-06       1    4    1         0.6938377695E-07      0.8028609530E-06

    ------------------------------------------------
       NWT REQUIRED            5 OUTER ITERATIONS 
       AND A TOTAL OF          7 INNER ITERATIONS.
    ------------------------------------------------

 NO OUTPUT CONTROL FOR STRESS PERIOD   46   TIME STEP   11
 
 WELLS WITH REDUCED PUMPING FOR STRESS PERIOD    46 TIME STEP    11
   LAY   ROW   COL         APPL.Q          ACT.Q        GW-HEAD       CELL-BOT
     1     3    50  -0.145005E+01  -0.319361E+00   0.339759E+01   0.000000E+00
     1     5    55  -0.145005E+01  -0.249731E+00   0.292977E+01   0.000000E+00
 
 
 SOLVING FOR HEAD 
                                                   Max.-Head-Change                         Max.-Flux-Residual
  Residual-Control   Outer-Iter.   Inner-Iter.     Column Row Layer    Maximum-Head-Change  Column Row Layer    Maximum-Flux-Residual          L2-NORM 
          0                 1           2             1    1     1      -0.1240931030E-01       1    1    1        -0.9082182012E-03      0.1424938007E-01
          0                 2           2             1    1     1       0.1163602796E-02       1    1    1         0.9082104675E-04      0.1386370241E-02
          0                 3           1             1    1     1      -0.9920106981E-04       1    1    1        -0.8173973569E-05      0.1299936089E-03
          0                 4           1             1    1     1       0.7599746217E-05       1    4    1        -0.8074412960E-06      0.1100021613E-04
          0                 5           1             1    1     1      -0.5156301715E-06       1    4    1         0.7172449301E-07      0.8101783869E-06

    ------------------------------------------------
       NWT REQUIRED            5 OUTER ITERATIONS 
       AND A TOTAL OF          7 INNER ITERATIONS.
    ------------------------------------------------

 NO OUTPUT CONTROL FOR STRESS PERIOD   46   TIME STEP   12
 
 WELLS WITH REDUCED PUMPING FOR STRESS PERIOD    46 TIME STEP    12
   LAY   ROW   COL         APPL.Q          ACT.Q        GW-HEAD       CELL-BOT
     1     3    50  -0.145007E+01  -0.319109E+00   0.339602E+01   0.000000E+00
     1     5    55  -0.145007E+01  -0.249535E+00   0.292846E+01   0.000000E+00
 
 
 SOLVING FOR HEAD 
                                                   Max.-Head-Change                         Max.-Flux-Residual
  Residual-Control   Outer-Iter.   Inner-Iter.     Column Row Layer    Maximum-Head-Change  Column Row Layer    Maximum-Flux-Residual          L2-NORM 
          0                 1           2             1    1     1      -0.1364054402E-01       1    1    1        -0.9078851954E-03      0.1425387045E-01
          0                 2           2             1    1     1       0.1274466777E-02       1    1    1         0.9078761583E-04      0.1386414663E-02
          0                 3           2             1    1     1      -0.1082258037E-03       1    1    1        -0.8170977715E-05      0.1301838651E-03
          0                 4           1             1    1     1       0.8259331552E-05       1    4    1        -0.8266082752E-06      0.1105675992E-04
          0                 5           1             1    1     1      -0.5582002000E-06       1    4    1         0.7401396118E-07      0.8176751900E-06

    ------------------------------------------------
       NWT REQUIRED            5 OUTER ITERATIONS 
       AND A TOTAL OF          8 INNER ITERATIONS.
    ------------------------------------------------

 NO OUTPUT CONTROL FOR STRESS PERIOD   46   TIME STEP   13
 
 WELLS WITH REDUCED PUMPING FOR STRESS PERIOD    46 TIME STEP    13
   LAY   ROW   COL         APPL.Q          ACT.Q        GW-HEAD       CELL-BOT
     1     3    50  -0.145007E+01  -0.318839E+00   0.339437E+01   0.000000E+00
     1     5    55  -0.145007E+01  -0.249324E+00   0.292707E+01   0.000000E+00
 
 
 SOLVING FOR HEAD 
                                                   Max.-Head-Change                         Max.-Flux-Residual
  Residual-Control   Outer-Iter.   Inner-Iter.     Column Row Layer    Maximum-Head-Change  Column Row Layer    Maximum-Flux-Residual          L2-NORM 
          0                 1           2             1    1     1      -0.1499342088E-01       1    1    1        -0.9075208301E-03      0.1424955416E-01
          0                 2           2             1    1     1       0.1395874653E-02       1    1    1         0.9075103108E-04      0.1386638777E-02
          0                 3           2             1    1     1      -0.1180603992E-03       1    1    1        -0.8167699729E-05      0.1303889390E-03
          0                 4           1             1    1     1       0.8972152932E-05       1    4    1        -0.8447916038E-06      0.1111119077E-04
          0                 5           1             1    1     1      -0.6038260567E-06       1    4    1         0.7620722187E-07      0.8250220755E-06

    ------------------------------------------------
       NWT REQUIRED            5 OUTER ITERATIONS 
       AND A TOTAL OF          8 INNER ITERATIONS.
    ------------------------------------------------

 NO OUTPUT CONTROL FOR STRESS PERIOD   46   TIME STEP   14
 
 WELLS WITH REDUCED PUMPING FOR STRESS PERIOD    46 TIME STEP    14
   LAY   ROW   COL         APPL.Q          ACT.Q        GW-HEAD       CELL-BOT
     1     3    50  -0.145003E+01  -0.318536E+00   0.339258E+01   0.000000E+00
     1     5    55  -0.145003E+01  -0.249089E+00   0.292557E+01   0.000000E+00
 
 
 SOLVING FOR HEAD 
                                                   Max.-Head-Change                         Max.-Flux-Residual
  Residual-Control   Outer-Iter.   Inner-Iter.     Column Row Layer    Maximum-Head-Change  Column Row Layer    Maximum-Flux-Residual          L2-NORM 
          0                 1           2             1    1     1      -0.1647987394E-01       1    1    1        -0.9071221514E-03      0.1425038228E-01
          0                 2           2             1    1     1       0.1528854224E-02       1    1    1         0.9071099517E-04      0.1386322409E-02
          0                 3           2             1    1     1      -0.1287838192E-03       1    1    1        -0.8164113039E-05      0.1305242057E-03
          0                 4           1             1    1     1       0.9744658032E-05       1    4    1        -0.8620919019E-06      0.1115964410E-04
          0                 5           1             1    1     1      -0.6528431231E-06       1    4    1         0.7831301829E-07      0.8319582768E-06

    ------------------------------------------------
       NWT REQUIRED            5 OUTER ITERATIONS 
       AND A TOTAL OF          8 INNER ITERATIONS.
    ------------------------------------------------

 NO OUTPUT CONTROL FOR STRESS PERIOD   46   TIME STEP   15
 
 WELLS WITH REDUCED PUMPING FOR STRESS PERIOD    46 TIME STEP    15
   LAY   ROW   COL         APPL.Q          ACT.Q        GW-HEAD       CELL-BOT
     1     3    50  -0.145003E+01  -0.318222E+00   0.339067E+01   0.000000E+00
     1     5    55  -0.145003E+01  -0.248845E+00   0.292397E+01   0.000000E+00
 
 
 SOLVING FOR HEAD 
                                                   Max.-Head-Change                         Max.-Flux-Residual
  Residual-Control   Outer-Iter.   Inner-Iter.     Column Row Layer    Maximum-Head-Change  Column Row Layer    Maximum-Flux-Residual          L2-NORM 
          0                 1           2             1    1     1      -0.1811298618E-01       1    1    1        -0.9066859221E-03      0.1425201311E-01
          0                 2           2             1    1     1       0.1674535205E-02       1    1    1         0.9066718223E-04      0.1386271357E-02
          0                 3           2             1    1     1      -0.1404817167E-03       1    1    1        -0.8160188473E-05      0.1306731910E-03
          0                 4           1             1    1     1       0.1058238590E-04       1    4    1        -0.8784953032E-06      0.1120821526E-04
          0                 5           1             1    1     1      -0.7055132297E-06       2    4    1         0.8033232746E-07      0.8388357533E-06

    ------------------------------------------------
       NWT REQUIRED            5 OUTER ITERATIONS 
       AND A TOTAL OF          8 INNER ITERATIONS.
    ------------------------------------------------

 NO OUTPUT CONTROL FOR STRESS PERIOD   46   TIME STEP   16
 
 WELLS WITH REDUCED PUMPING FOR STRESS PERIOD    46 TIME STEP    16
   LAY   ROW   COL         APPL.Q          ACT.Q        GW-HEAD       CELL-BOT
     1     3    50  -0.145003E+01  -0.317869E+00   0.338851E+01   0.000000E+00
     1     5    55  -0.145003E+01  -0.248565E+00   0.292213E+01   0.000000E+00
 
 
 SOLVING FOR HEAD 
                                                   Max.-Head-Change                         Max.-Flux-Residual
  Residual-Control   Outer-Iter.   Inner-Iter.     Column Row Layer    Maximum-Head-Change  Column Row Layer    Maximum-Flux-Residual          L2-NORM 
          0                 1           2             1    1     1      -0.1994737905E-01       1    1    1        -0.9062085922E-03      0.1425021599E-01
          0                 2           2             1    1     1       0.1839567300E-02       1    1    1         0.9061970996E-04      0.1385991523E-02
          0                 3           2             1    1     1      -0.1537811494E-03       1    1    1        -0.8155931702E-05      0.1307131963E-03
          0                 4           1             1    1     1       0.1153290174E-04       1    4    1        -0.8739126329E-06      0.1124199057E-04
          0                 5           1             1    1     1      -0.7646769465E-06       1    4    1         0.8096629855E-07      0.8444273932E-06

    ------------------------------------------------
       NWT REQUIRED            5 OUTER ITERATIONS 
       AND A TOTAL OF          8 INNER ITERATIONS.
    ------------------------------------------------

 NO OUTPUT CONTROL FOR STRESS PERIOD   46   TIME STEP   17
 
 WELLS WITH REDUCED PUMPING FOR STRESS PERIOD    46 TIME STEP    17
   LAY   ROW   COL         APPL.Q          ACT.Q        GW-HEAD       CELL-BOT
     1     3    50  -0.145006E+01  -0.317498E+00   0.338620E+01   0.000000E+00
     1     5    55  -0.145006E+01  -0.248275E+00   0.292018E+01   0.000000E+00
 
 
 SOLVING FOR HEAD 
                                                   Max.-Head-Change                         Max.-Flux-Residual
  Residual-Control   Outer-Iter.   Inner-Iter.     Column Row Layer    Maximum-Head-Change  Column Row Layer    Maximum-Flux-Residual          L2-NORM 
          0                 1           2             1    1     1      -0.2199890037E-01       2    5    1        -0.9095832868E-03      0.1426602458E-01
          0                 2           2             1    1     1       0.2021980093E-02       2    3    1         0.9095551244E-04      0.1386183192E-02
          0                 3           2             1    1     1      -0.1683435733E-03       2    3    1        -0.8186257602E-05      0.1308392422E-03
          0                 4           1             1    1     1       0.1256599699E-04       3    4    1        -0.8886755012E-06      0.1128627966E-04
          0                 5           1             1    1     1      -0.8284345566E-06       2    4    1         0.8296917642E-07      0.8507332449E-06

    ------------------------------------------------
       NWT REQUIRED            5 OUTER ITERATIONS 
       AND A TOTAL OF          8 INNER ITERATIONS.
    ------------------------------------------------

 NO OUTPUT CONTROL FOR STRESS PERIOD   46   TIME STEP   18
 
 WELLS WITH REDUCED PUMPING FOR STRESS PERIOD    46 TIME STEP    18
   LAY   ROW   COL         APPL.Q          ACT.Q        GW-HEAD       CELL-BOT
     1     3    50  -0.145005E+01  -0.317083E+00   0.338369E+01   0.000000E+00
     1     5    55  -0.145005E+01  -0.247947E+00   0.291804E+01   0.000000E+00
 
 
 SOLVING FOR HEAD 
                                                   Max.-Head-Change                         Max.-Flux-Residual
  Residual-Control   Outer-Iter.   Inner-Iter.     Column Row Layer    Maximum-Head-Change  Column Row Layer    Maximum-Flux-Residual          L2-NORM 
          0                 1           2             1    1     1      -0.2420828959E-01       1    3    1        -0.9130561370E-03      0.1426494502E-01
          0                 2           2             1    1     1       0.2218905537E-02       1    3    1         0.9130140556E-04      0.1387143587E-02
          0                 3           2             1    1     1      -0.1840888996E-03       1    3    1        -0.8217432825E-05      0.1310699441E-03
          0                 4           1             1    1     1       0.1368305970E-04       1    4    1        -0.9108817274E-06      0.1133743908E-04
          0                 5           1             1    1     1      -0.8969680840E-06       2    4    1         0.8523787187E-07      0.8572256594E-06

    ------------------------------------------------
       NWT REQUIRED            5 OUTER ITERATIONS 
       AND A TOTAL OF          8 INNER ITERATIONS.
    ------------------------------------------------

 NO OUTPUT CONTROL FOR STRESS PERIOD   46   TIME STEP   19
 
 WELLS WITH REDUCED PUMPING FOR STRESS PERIOD    46 TIME STEP    19
   LAY   ROW   COL         APPL.Q          ACT.Q        GW-HEAD       CELL-BOT
     1     3    50  -0.144997E+01  -0.316616E+00   0.338095E+01   0.000000E+00
     1     5    55  -0.144997E+01  -0.247583E+00   0.291573E+01   0.000000E+00
 
 
 SOLVING FOR HEAD 
                                                   Max.-Head-Change                         Max.-Flux-Residual
  Residual-Control   Outer-Iter.   Inner-Iter.     Column Row Layer    Maximum-Head-Change  Column Row Layer    Maximum-Flux-Residual          L2-NORM 
          0                 1           2             1    1     1      -0.2661116041E-01       1    3    1        -0.9114400131E-03      0.1426471607E-01
          0                 2           2             1    1     1       0.2431938821E-02       1    3    1         0.9113963259E-04      0.1386980074E-02
          0                 3           2             1    1     1      -0.2010074304E-03       1    3    1        -0.8202903427E-05      0.1311740652E-03
          0                 4           1             1    1     1       0.1487266966E-04       1    4    1        -0.9240953922E-06      0.1137753197E-04
          0                 5           1             1    1     1      -0.9686712934E-06       2    4    1         0.8688340714E-07      0.8626413409E-06

    ------------------------------------------------
       NWT REQUIRED            5 OUTER ITERATIONS 
       AND A TOTAL OF          8 INNER ITERATIONS.
    ------------------------------------------------

 NO OUTPUT CONTROL FOR STRESS PERIOD   46   TIME STEP   20
 
 WELLS WITH REDUCED PUMPING FOR STRESS PERIOD    46 TIME STEP    20
   LAY   ROW   COL         APPL.Q          ACT.Q        GW-HEAD       CELL-BOT
     1     3    50  -0.144996E+01  -0.316127E+00   0.337798E+01   0.000000E+00
     1     5    55  -0.144996E+01  -0.247192E+00   0.291317E+01   0.000000E+00
 
 
 SOLVING FOR HEAD 
                                                   Max.-Head-Change                         Max.-Flux-Residual
  Residual-Control   Outer-Iter.   Inner-Iter.     Column Row Layer    Maximum-Head-Change  Column Row Layer    Maximum-Flux-Residual          L2-NORM 
          0                 1           2             1    1     1      -0.2924237763E-01       1    3    1        -0.9103781361E-03      0.1425344801E-01
          0                 2           2             1    1     1       0.2664668158E-02       1    3    1         0.9103314671E-04      0.1386673612E-02
          0                 3           2             1    1     1      -0.2194263924E-03       1    3    1        -0.8193354343E-05      0.1312656986E-03
          0                 4           1             1    1     1       0.1616074233E-04       1    4    1        -0.9357384805E-06      0.1141412123E-04
          0                 5           1             1    1     1      -0.1045069423E-05       2    4    1         0.8839924348E-07      0.8673366847E-06
          0                 6           1             1    1     1       0.5879648509E-07       2    4    1        -0.6470646241E-08      0.5614602945E-07

    ------------------------------------------------
       NWT REQUIRED            6 OUTER ITERATIONS 
       AND A TOTAL OF          9 INNER ITERATIONS.
    ------------------------------------------------

 NO OUTPUT CONTROL FOR STRESS PERIOD   46   TIME STEP   21
 
 WELLS WITH REDUCED PUMPING FOR STRESS PERIOD    46 TIME STEP    21
   LAY   ROW   COL         APPL.Q          ACT.Q        GW-HEAD       CELL-BOT
     1     3    50  -0.145000E+01  -0.315593E+00   0.337465E+01   0.000000E+00
     1     5    55  -0.145000E+01  -0.246768E+00   0.291032E+01   0.000000E+00
 
 
 SOLVING FOR HEAD 
                                                   Max.-Head-Change                         Max.-Flux-Residual
  Residual-Control   Outer-Iter.   Inner-Iter.     Column Row Layer    Maximum-Head-Change  Column Row Layer    Maximum-Flux-Residual          L2-NORM 
          0                 1           2             1    1     1      -0.3212956454E-01       1    6    1        -0.9095190341E-03      0.1423489253E-01
          0                 2           2             1    1     1       0.2919619371E-02       1    7    1         0.9094851430E-04      0.1385413298E-02
          0                 3           2             1    1     1      -0.2395518713E-03       1    7    1        -0.8185675723E-05      0.1312710244E-03
          0                 4           1             1    1     1       0.1756169792E-04       1    4    1        -0.9464750832E-06      0.1144318400E-04
          0                 5           1             1    1     1      -0.1126669646E-05       2    4    1         0.8981333011E-07      0.8710194749E-06
          0                 6           1             1    1     1       0.6288052895E-07       2    4    1        -0.6597311142E-08      0.5650785752E-07

    ------------------------------------------------
       NWT REQUIRED            6 OUTER ITERATIONS 
       AND A TOTAL OF          9 INNER ITERATIONS.
    ------------------------------------------------

 NO OUTPUT CONTROL FOR STRESS PERIOD   46   TIME STEP   22
 
 WELLS WITH REDUCED PUMPING FOR STRESS PERIOD    46 TIME STEP    22
   LAY   ROW   COL         APPL.Q          ACT.Q        GW-HEAD       CELL-BOT
     1     3    50  -0.144999E+01  -0.315043E+00   0.337130E+01   0.000000E+00
     1     5    55  -0.144999E+01  -0.246336E+00   0.290749E+01   0.000000E+00
 
 
 SOLVING FOR HEAD 
                                                   Max.-Head-Change                         Max.-Flux-Residual
  Residual-Control   Outer-Iter.   Inner-Iter.     Column Row Layer    Maximum-Head-Change  Column Row Layer    Maximum-Flux-Residual          L2-NORM 
          0                 1           2             1    1     1      -0.3529884135E-01       1    7    1        -0.9086782187E-03      0.1421269254E-01
          0                 2           2             1    1     1       0.3199101937E-02       1    7    1         0.9086423675E-04      0.1383614314E-02
          0                 3           2             1    1     1      -0.2615653079E-03       1    7    1        -0.8178130475E-05      0.1312115857E-03
          0                 4           1             1    1     1       0.1908747003E-04       1    4    1        -0.9563670034E-06      0.1146528215E-04
          0                 5           1             1    1     1      -0.1213618822E-05       2    4    1         0.9112664046E-07      0.8736089919E-06
          0                 6           1             1    1     1       0.6712738435E-07       2    4    1        -0.6713154477E-08      0.5676743667E-07

    ------------------------------------------------
       NWT REQUIRED            6 OUTER ITERATIONS 
       AND A TOTAL OF          9 INNER ITERATIONS.
    ------------------------------------------------

 NO OUTPUT CONTROL FOR STRESS PERIOD   46   TIME STEP   23
 
 WELLS WITH REDUCED PUMPING FOR STRESS PERIOD    46 TIME STEP    23
   LAY   ROW   COL         APPL.Q          ACT.Q        GW-HEAD       CELL-BOT
     1     3    50  -0.145003E+01  -0.314473E+00   0.336776E+01   0.000000E+00
     1     5    55  -0.145003E+01  -0.245892E+00   0.290452E+01   0.000000E+00
 
 
 SOLVING FOR HEAD 
                                                   Max.-Head-Change                         Max.-Flux-Residual
  Residual-Control   Outer-Iter.   Inner-Iter.     Column Row Layer    Maximum-Head-Change  Column Row Layer    Maximum-Flux-Residual          L2-NORM 
          0                 1           2             1    1     1      -0.3877757355E-01       1    7    1        -0.9077538262E-03      0.1419851528E-01
          0                 2           2             1    1     1       0.3505513284E-02       1    7    1         0.9077132526E-04      0.1381507707E-02
          0                 3           2             1    1     1      -0.2856530882E-03       1    7    1        -0.8169812388E-05      0.1310627308E-03
          0                 4           1             1    1     1       0.2074995635E-04       1    4    1        -0.9654456221E-06      0.1147704038E-04
          0                 5           1             1    1     1      -0.1305823446E-05       2    4    1         0.9233960441E-07      0.8747177245E-06
          0                 6           1             1    1     1       0.7149729307E-07       2    4    1        -0.6817423071E-08      0.5689363606E-07

    ------------------------------------------------
       NWT REQUIRED            6 OUTER ITERATIONS 
       AND A TOTAL OF          9 INNER ITERATIONS.
    ------------------------------------------------

 NO OUTPUT CONTROL FOR STRESS PERIOD   46   TIME STEP   24
 
 WELLS WITH REDUCED PUMPING FOR STRESS PERIOD    46 TIME STEP    24
   LAY   ROW   COL         APPL.Q          ACT.Q        GW-HEAD       CELL-BOT
     1     3    50  -0.144999E+01  -0.313864E+00   0.336408E+01   0.000000E+00
     1     5    55  -0.144999E+01  -0.245422E+00   0.290145E+01   0.000000E+00
 
 
 SOLVING FOR HEAD 
                                                   Max.-Head-Change                         Max.-Flux-Residual
  Residual-Control   Outer-Iter.   Inner-Iter.     Column Row Layer    Maximum-Head-Change  Column Row Layer    Maximum-Flux-Residual          L2-NORM 
          0                 1           2             1    1     1      -0.4259530810E-01       1    7    1        -0.9067458786E-03      0.1418974038E-01
          0                 2           2             1    1     1       0.3841433696E-02       1    1    1         0.9067000458E-04      0.1379998568E-02
          0                 3           2             1    1     1      -0.3120151879E-03       1    7    1        -0.8160742071E-05      0.1309580017E-03
          0                 4           1             1    1     1       0.2256164550E-04       1    4    1        -0.9737370732E-06      0.1149051988E-04
          0                 5           1             1    1     1      -0.1402922408E-05       2    4    1         0.9345233920E-07      0.8750370196E-06
          0                 6           1             1    1     1       0.7592663001E-07       2    4    1        -0.6909125716E-08      0.5691847796E-07

    ------------------------------------------------
       NWT REQUIRED            6 OUTER ITERATIONS 
       AND A TOTAL OF          9 INNER ITERATIONS.
    ------------------------------------------------

 NO OUTPUT CONTROL FOR STRESS PERIOD   46   TIME STEP   25
 
 WELLS WITH REDUCED PUMPING FOR STRESS PERIOD    46 TIME STEP    25
   LAY   ROW   COL         APPL.Q          ACT.Q        GW-HEAD       CELL-BOT
     1     3    50  -0.145002E+01  -0.313221E+00   0.336011E+01   0.000000E+00
     1     5    55  -0.145002E+01  -0.244927E+00   0.289815E+01   0.000000E+00
 
 
 SOLVING FOR HEAD 
                                                   Max.-Head-Change                         Max.-Flux-Residual
  Residual-Control   Outer-Iter.   Inner-Iter.     Column Row Layer    Maximum-Head-Change  Column Row Layer    Maximum-Flux-Residual          L2-NORM 
          0                 1           3             1    1     1      -0.4678434258E-01       1    7    1        -0.9056472592E-03      0.1419024970E-01
          0                 2           2             1    1     1       0.4209837412E-02       1    7    1         0.9055955815E-04      0.1378770730E-02
          0                 3           2             1    1     1      -0.3408829442E-03       1    7    1        -0.8150855315E-05      0.1308358567E-03
          0                 4           1             1    1     1       0.2453800535E-04       1    4    1        -0.9812209214E-06      0.1149977986E-04
          0                 5           1             1    1     1      -0.1505539085E-05       2    4    1         0.9447363780E-07      0.8740661902E-06
          0                 6           1             1    1     1       0.8045398843E-07       2    4    1        -0.6990966028E-08      0.5681290399E-07

    ------------------------------------------------
       NWT REQUIRED            6 OUTER ITERATIONS 
       AND A TOTAL OF         10 INNER ITERATIONS.
    ------------------------------------------------

 NO OUTPUT CONTROL FOR STRESS PERIOD   46   TIME STEP   26
 
 WELLS WITH REDUCED PUMPING FOR STRESS PERIOD    46 TIME STEP    26
   LAY   ROW   COL         APPL.Q          ACT.Q        GW-HEAD       CELL-BOT
     1     3    50  -0.145001E+01  -0.312532E+00   0.335589E+01   0.000000E+00
     1     5    55  -0.145001E+01  -0.244400E+00   0.289467E+01   0.000000E+00
 
 
 SOLVING FOR HEAD 
                                                   Max.-Head-Change                         Max.-Flux-Residual
  Residual-Control   Outer-Iter.   Inner-Iter.     Column Row Layer    Maximum-Head-Change  Column Row Layer    Maximum-Flux-Residual          L2-NORM 
          0                 1           3             3    4     1      -0.5200133908E-01       1    7    1        -0.9044485493E-03      0.1426633104E-01
          0                 2           2             1    1     1       0.4669160363E-02       1    7    1         0.9044533205E-04      0.1377627700E-02
          0                 3           2             2    1     1      -0.3774887494E-03       1    7    1        -0.8140582603E-05      0.1301062254E-03
          0                 4           1             1    1     1       0.2707342973E-04       1    4    1        -0.9347860619E-06      0.1142765277E-04
          0                 5           1             1    1     1      -0.1633301380E-05       2    4    1         0.9162526737E-07      0.8654677384E-06
          0                 6           1             1    1     1       0.8581407384E-07       2    4    1        -0.6851166745E-08      0.5619733490E-07

    ------------------------------------------------
       NWT REQUIRED            6 OUTER ITERATIONS 
       AND A TOTAL OF         10 INNER ITERATIONS.
    ------------------------------------------------

 NO OUTPUT CONTROL FOR STRESS PERIOD   46   TIME STEP   27
 
 WELLS WITH REDUCED PUMPING FOR STRESS PERIOD    46 TIME STEP    27
   LAY   ROW   COL         APPL.Q          ACT.Q        GW-HEAD       CELL-BOT
     1     3    50  -0.145000E+01  -0.311795E+00   0.335138E+01   0.000000E+00
     1     5    55  -0.145000E+01  -0.243838E+00   0.289096E+01   0.000000E+00
 
 
 SOLVING FOR HEAD 
                                                   Max.-Head-Change                         Max.-Flux-Residual
  Residual-Control   Outer-Iter.   Inner-Iter.     Column Row Layer    Maximum-Head-Change  Column Row Layer    Maximum-Flux-Residual          L2-NORM 
          0                 1           3             1    4     1      -0.5907130243E-01       3    5    1        -0.9161470419E-03      0.1448400500E-01
          0                 2           2             1    1     1       0.5250200468E-02       3    5    1         0.9162620416E-04      0.1386793181E-02
          0                 3           2             1    1     1      -0.4234681752E-03       4    3    1        -0.8247426816E-05      0.1300942341E-03
          0                 4           1             1    1     1       0.3023696591E-04       4    4    1        -0.8938161109E-06      0.1140826353E-04
          0                 5           1             1    1     1      -0.1785984163E-05       2    4    1         0.9023829861E-07      0.8589946748E-06
          0                 6           1             1    1     1       0.9186964423E-07       2    4    1        -0.6809404596E-08      0.5563607697E-07

    ------------------------------------------------
       NWT REQUIRED            6 OUTER ITERATIONS 
       AND A TOTAL OF         10 INNER ITERATIONS.
    ------------------------------------------------

 NO OUTPUT CONTROL FOR STRESS PERIOD   46   TIME STEP   28
 
 WELLS WITH REDUCED PUMPING FOR STRESS PERIOD    46 TIME STEP    28
   LAY   ROW   COL         APPL.Q          ACT.Q        GW-HEAD       CELL-BOT
     1     3    50  -0.144997E+01  -0.311013E+00   0.334661E+01   0.000000E+00
     1     5    55  -0.144997E+01  -0.243240E+00   0.288703E+01   0.000000E+00
 
 
 SOLVING FOR HEAD 
                                                   Max.-Head-Change                         Max.-Flux-Residual
  Residual-Control   Outer-Iter.   Inner-Iter.     Column Row Layer    Maximum-Head-Change  Column Row Layer    Maximum-Flux-Residual          L2-NORM 
          0                 1           3             1    4     1      -0.6609479853E-01       1    5    1        -0.9421612000E-03      0.1476175609E-01
          0                 2           2             1    1     1       0.5897447207E-02       1    5    1         0.9422283164E-04      0.1410578740E-02
          0                 3           2             1    1     1      -0.4754762715E-03       1    5    1        -0.8480824677E-05      0.1319164099E-03
          0                 4           1             1    1     1       0.3386458452E-04       1    4    1        -0.9163277923E-06      0.1155539414E-04
          0                 5           1             1    1     1      -0.1954579637E-05       2    4    1         0.9243346000E-07      0.8627302424E-06
          0                 6           1             1    1     1       0.9834436359E-07       2    4    1        -0.6951090370E-08      0.5561716043E-07

    ------------------------------------------------
       NWT REQUIRED            6 OUTER ITERATIONS 
       AND A TOTAL OF         10 INNER ITERATIONS.
    ------------------------------------------------

 NO OUTPUT CONTROL FOR STRESS PERIOD   46   TIME STEP   29
 
 WELLS WITH REDUCED PUMPING FOR STRESS PERIOD    46 TIME STEP    29
   LAY   ROW   COL         APPL.Q          ACT.Q        GW-HEAD       CELL-BOT
     1     3    50  -0.145002E+01  -0.310167E+00   0.334136E+01   0.000000E+00
     1     5    55  -0.145002E+01  -0.242599E+00   0.288273E+01   0.000000E+00
 
 
 SOLVING FOR HEAD 
                                                   Max.-Head-Change                         Max.-Flux-Residual
  Residual-Control   Outer-Iter.   Inner-Iter.     Column Row Layer    Maximum-Head-Change  Column Row Layer    Maximum-Flux-Residual          L2-NORM 
          0                 1           3             1    4     1      -0.7394766902E-01       1    5    1        -0.9598883359E-03      0.1505827604E-01
          0                 2           2             1    1     1       0.6612769356E-02       1    5    1         0.9599554593E-04      0.1437803484E-02
          0                 3           2             1    1     1      -0.5330971094E-03       1    5    1        -0.8640465925E-05      0.1340652778E-03
          0                 4           1             1    1     1       0.3787485071E-04       1    4    1        -0.9195490094E-06      0.1172335426E-04
          0                 5           1             1    1     1      -0.2124332820E-05       9    4    1         0.9333766293E-07      0.8655967013E-06
          0                 6           1             1    1     1       0.1040223056E-06       2    4    1        -0.6990987345E-08      0.5546359931E-07

    ------------------------------------------------
       NWT REQUIRED            6 OUTER ITERATIONS 
       AND A TOTAL OF         10 INNER ITERATIONS.
    ------------------------------------------------

 NO OUTPUT CONTROL FOR STRESS PERIOD   46   TIME STEP   30
 
 WELLS WITH REDUCED PUMPING FOR STRESS PERIOD    46 TIME STEP    30
   LAY   ROW   COL         APPL.Q          ACT.Q        GW-HEAD       CELL-BOT
     1     3    50  -0.144983E+01  -0.309261E+00   0.333603E+01   0.000000E+00
     1     5    55  -0.144983E+01  -0.241907E+00   0.287834E+01   0.000000E+00
 



 STREAM LISTING     PERIOD     46   STEP       30

 LAYER ROW COL. STREAM  RCH.   FLOW INTO    STREAM     FLOW OUT OF   OVRLND.    DIRECT     STREAM      STREAM      STREAM     STREAM  STREAMBED   FLOW TO   CHNG. UNSAT. 
                SEG.NO.  NO.   STRM. RCH.    LOSS       STRM. RCH.   RUNOFF     PRECIP       ET         HEAD        DEPTH      WIDTH  CONDCTNC.   WAT. TAB.

   1    4    1     1     1    5.0000E-01  4.2219E-04   4.9958E-01  0.000E+00  0.000E+00  0.000E+00  1.40385E+02  5.346E-01  2.452E+00  4.081E-04  8.904E-04 -4.679E-04
   1    4    2     1     2    4.9958E-01  4.2204E-04   4.9916E-01  0.000E+00  0.000E+00  0.000E+00  1.40084E+02  5.344E-01  2.452E+00  4.080E-04  8.848E-04 -4.625E-04
   1    4    3     1     3    4.9916E-01  4.2189E-04   4.9873E-01  0.000E+00  0.000E+00  0.000E+00  1.39784E+02  5.342E-01  2.452E+00  4.079E-04  8.801E-04 -4.579E-04
   1    4    4     1     4    4.9873E-01  4.2174E-04   4.9831E-01  0.000E+00  0.000E+00  0.000E+00  1.39484E+02  5.340E-01  2.451E+00  4.079E-04  8.760E-04 -4.540E-04
   1    4    5     1     5    4.9831E-01  4.2159E-04   4.9789E-01  0.000E+00  0.000E+00  0.000E+00  1.39184E+02  5.338E-01  2.451E+00  4.078E-04  8.728E-04 -4.509E-04
   1    4    6     1     6    4.9789E-01  4.2144E-04   4.9747E-01  0.000E+00  0.000E+00  0.000E+00  1.38884E+02  5.336E-01  2.451E+00  4.077E-04  8.703E-04 -4.486E-04
   1    4    7     1     7    4.9747E-01  4.2129E-04   4.9705E-01  0.000E+00  0.000E+00  0.000E+00  1.38583E+02  5.334E-01  2.451E+00  4.077E-04  8.686E-04 -4.470E-04
   1    4    8     1     8    4.9705E-01  4.2114E-04   4.9663E-01  0.000E+00  0.000E+00  0.000E+00  1.38283E+02  5.332E-01  2.450E+00  4.076E-04  8.677E-04 -4.462E-04
   1    4    9     1     9    4.9663E-01  4.2099E-04   4.9621E-01  0.000E+00  0.000E+00  0.000E+00  1.37983E+02  5.330E-01  2.450E+00  4.075E-04  8.675E-04 -4.463E-04
   1    4   10     1    10    4.9621E-01  4.2083E-04   4.9578E-01  0.000E+00  0.000E+00  0.000E+00  1.37683E+02  5.328E-01  2.450E+00  4.075E-04  8.682E-04 -4.471E-04
   1    4   11     1    11    4.9578E-01  4.2068E-04   4.9536E-01  0.000E+00  0.000E+00  0.000E+00  1.37383E+02  5.326E-01  2.450E+00  4.074E-04  8.696E-04 -4.487E-04
   1    4   12     1    12    4.9536E-01  4.2053E-04   4.9494E-01  0.000E+00  0.000E+00  0.000E+00  1.37082E+02  5.324E-01  2.449E+00  4.073E-04  8.719E-04 -4.511E-04
   1    4   13     1    13    4.9494E-01  4.2038E-04   4.9452E-01  0.000E+00  0.000E+00  0.000E+00  1.36782E+02  5.322E-01  2.449E+00  4.073E-04  8.750E-04 -4.544E-04
   1    4   14     1    14    4.9452E-01  4.2023E-04   4.9410E-01  0.000E+00  0.000E+00  0.000E+00  1.36482E+02  5.320E-01  2.449E+00  4.072E-04  8.789E-04 -4.584E-04
   1    4   15     1    15    4.9410E-01  4.2008E-04   4.9368E-01  0.000E+00  0.000E+00  0.000E+00  1.36182E+02  5.318E-01  2.449E+00  4.071E-04  8.837E-04 -4.633E-04
   1    4   16     1    16    4.9368E-01  4.1993E-04   4.9326E-01  0.000E+00  0.000E+00  0.000E+00  1.35882E+02  5.316E-01  2.448E+00  4.071E-04  8.893E-04 -4.691E-04
   1    4   17     1    17    4.9326E-01  4.1978E-04   4.9284E-01  0.000E+00  0.000E+00  0.000E+00  1.35581E+02  5.314E-01  2.448E+00  4.070E-04  8.958E-04 -4.757E-04
   1    4   18     1    18    4.9284E-01  4.1963E-04   4.9242E-01  0.000E+00  0.000E+00  0.000E+00  1.35281E+02  5.312E-01  2.448E+00  4.069E-04  9.031E-04 -4.833E-04
   1    4   19     1    19    4.9242E-01  4.1948E-04   4.9200E-01  0.000E+00  0.000E+00  0.000E+00  1.34981E+02  5.310E-01  2.448E+00  4.069E-04  9.114E-04 -4.917E-04
   1    4   20     1    20    4.9200E-01  4.1933E-04   4.9158E-01  0.000E+00  0.000E+00  0.000E+00  1.34681E+02  5.308E-01  2.448E+00  4.068E-04  9.206E-04 -5.010E-04
   1    4   21     1    21    4.9158E-01  4.1918E-04   4.9117E-01  0.000E+00  0.000E+00  0.000E+00  1.34381E+02  5.306E-01  2.447E+00  4.067E-04  9.307E-04 -5.113E-04
   1    4   22     1    22    4.9117E-01  4.1903E-04   4.9075E-01  0.000E+00  0.000E+00  0.000E+00  1.34080E+02  5.304E-01  2.447E+00  4.067E-04  9.417E-04 -5.225E-04
   1    4   23     1    23    4.9075E-01  4.1888E-04   4.9033E-01  0.000E+00  0.000E+00  0.000E+00  1.33780E+02  5.302E-01  2.447E+00  4.066E-04  9.538E-04 -5.346E-04
   1    4   24     1    24    4.9033E-01  4.1873E-04   4.8991E-01  0.000E+00  0.000E+00  0.000E+00  1.33480E+02  5.300E-01  2.447E+00  4.066E-04  9.679E-04 -5.489E-04
   1    4   25     1    25    4.8991E-01  4.1858E-04   4.8949E-01  0.000E+00  0.000E+00  0.000E+00  1.33180E+02  5.298E-01  2.446E+00  4.065E-04  9.889E-04 -5.701E-04
   1    4   26     1    26    4.8949E-01  4.1843E-04   4.8907E-01  0.000E+00  0.000E+00  0.000E+00  1.32880E+02  5.296E-01  2.446E+00  4.064E-04  1.002E-03 -5.833E-04
   1    4   27     1    27    4.8907E-01  4.1828E-04   4.8865E-01  0.000E+00  0.000E+00  0.000E+00  1.32579E+02  5.294E-01  2.446E+00  4.064E-04  1.016E-03 -5.975E-04
   1    4   28     1    28    4.8865E-01  4.1813E-04   4.8824E-01  0.000E+00  0.000E+00  0.000E+00  1.32279E+02  5.291E-01  2.446E+00  4.063E-04  1.031E-03 -6.126E-04
   1    4   29     1    29    4.8824E-01  4.1798E-04   4.8782E-01  0.000E+00  0.000E+00  0.000E+00  1.31979E+02  5.289E-01  2.445E+00  4.062E-04  1.047E-03 -6.287E-04
   1    4   30     1    30    4.8782E-01  4.1783E-04   4.8740E-01  0.000E+00  0.000E+00  0.000E+00  1.31679E+02  5.287E-01  2.445E+00  4.062E-04  1.069E-03 -6.512E-04
   1    4   31     1    31    4.8740E-01  4.1768E-04   4.8698E-01  0.000E+00  0.000E+00  0.000E+00  1.31379E+02  5.285E-01  2.445E+00  4.061E-04  1.102E-03 -6.844E-04
   1    4   32     1    32    4.8698E-01  4.1753E-04   4.8656E-01  0.000E+00  0.000E+00  0.000E+00  1.31078E+02  5.283E-01  2.445E+00  4.060E-04  1.131E-03 -7.133E-04
   1    4   33     1    33    4.8656E-01  4.1738E-04   4.8615E-01  0.000E+00  0.000E+00  0.000E+00  1.30778E+02  5.281E-01  2.444E+00  4.060E-04  1.174E-03 -7.563E-04
   1    4   34     1    34    4.8615E-01  4.1723E-04   4.8573E-01  0.000E+00  0.000E+00  0.000E+00  1.30478E+02  5.279E-01  2.444E+00  4.059E-04  1.210E-03 -7.926E-04
   1    4   35     1    35    4.8573E-01  4.1708E-04   4.8531E-01  0.000E+00  0.000E+00  0.000E+00  1.30178E+02  5.277E-01  2.444E+00  4.058E-04  1.245E-03 -8.276E-04
   1    4   36     1    36    4.8531E-01  4.1693E-04   4.8490E-01  0.000E+00  0.000E+00  0.000E+00  1.29878E+02  5.275E-01  2.444E+00  4.058E-04  1.274E-03 -8.569E-04
   1    4   37     1    37    4.8490E-01  4.1678E-04   4.8448E-01  0.000E+00  0.000E+00  0.000E+00  1.29577E+02  5.273E-01  2.443E+00  4.057E-04  1.305E-03 -8.880E-04
   1    4   38     1    38    4.8448E-01  4.1663E-04   4.8406E-01  0.000E+00  0.000E+00  0.000E+00  1.29277E+02  5.271E-01  2.443E+00  4.056E-04  1.345E-03 -9.285E-04
   1    4   39     1    39    4.8406E-01  4.1648E-04   4.8365E-01  0.000E+00  0.000E+00  0.000E+00  1.28977E+02  5.269E-01  2.443E+00  4.056E-04  1.376E-03 -9.590E-04
   1    4   40     1    40    4.8365E-01  4.1633E-04   4.8323E-01  0.000E+00  0.000E+00  0.000E+00  1.28677E+02  5.267E-01  2.443E+00  4.055E-04  1.403E-03 -9.862E-04
   1    4   41     1    41    4.8323E-01  4.1618E-04   4.8281E-01  0.000E+00  0.000E+00  0.000E+00  1.28377E+02  5.265E-01  2.442E+00  4.054E-04  1.418E-03 -1.002E-03
   1    4   42     1    42    4.8281E-01  4.1603E-04   4.8240E-01  0.000E+00  0.000E+00  0.000E+00  1.28076E+02  5.263E-01  2.442E+00  4.054E-04  1.424E-03 -1.008E-03
   1    4   43     1    43    4.8240E-01  4.1588E-04   4.8198E-01  0.000E+00  0.000E+00  0.000E+00  1.27776E+02  5.261E-01  2.442E+00  4.053E-04  1.511E-03 -1.095E-03
   1    4   44     1    44    4.8198E-01  4.1573E-04   4.8157E-01  0.000E+00  0.000E+00  0.000E+00  1.27476E+02  5.259E-01  2.442E+00  4.052E-04  1.511E-03 -1.096E-03
   1    4   45     1    45    4.8157E-01  4.1558E-04   4.8115E-01  0.000E+00  0.000E+00  0.000E+00  1.27176E+02  5.257E-01  2.441E+00  4.052E-04  1.521E-03 -1.105E-03
   1    4   46     1    46    4.8115E-01  4.1543E-04   4.8073E-01  0.000E+00  0.000E+00  0.000E+00  1.26876E+02  5.255E-01  2.441E+00  4.051E-04  1.564E-03 -1.149E-03
   1    4   47     1    47    4.8073E-01  4.1528E-04   4.8032E-01  0.000E+00  0.000E+00  0.000E+00  1.26575E+02  5.253E-01  2.441E+00  4.050E-04  1.421E-03 -1.005E-03
   1    4   48     1    48    4.8032E-01  4.1513E-04   4.7990E-01  0.000E+00  0.000E+00  0.000E+00  1.26275E+02  5.251E-01  2.441E+00  4.050E-04  1.423E-03 -1.008E-03
   1    4   49     1    49    4.7990E-01  4.1498E-04   4.7949E-01  0.000E+00  0.000E+00  0.000E+00  1.25975E+02  5.249E-01  2.441E+00  4.049E-04  1.426E-03 -1.011E-03
   1    4   50     1    50    4.7949E-01  4.1483E-04   4.7907E-01  0.000E+00  0.000E+00  0.000E+00  1.25675E+02  5.247E-01  2.440E+00  4.048E-04  1.432E-03 -1.017E-03
   1    4   51     1    51    4.7907E-01  4.1469E-04   4.7866E-01  0.000E+00  0.000E+00  0.000E+00  1.25374E+02  5.245E-01  2.440E+00  4.048E-04  1.423E-03 -1.008E-03
   1    4   52     1    52    4.7866E-01  4.1454E-04   4.7825E-01  0.000E+00  0.000E+00  0.000E+00  1.25074E+02  5.243E-01  2.440E+00  4.047E-04  1.418E-03 -1.004E-03
   1    4   53     1    53    4.7825E-01  4.1439E-04   4.7783E-01  0.000E+00  0.000E+00  0.000E+00  1.24774E+02  5.241E-01  2.440E+00  4.046E-04  1.418E-03 -1.003E-03
   1    4   54     1    54    4.7783E-01  4.1424E-04   4.7742E-01  0.000E+00  0.000E+00  0.000E+00  1.24474E+02  5.239E-01  2.439E+00  4.046E-04  1.421E-03 -1.007E-03
   1    4   55     1    55    4.7742E-01  4.1409E-04   4.7700E-01  0.000E+00  0.000E+00  0.000E+00  1.24174E+02  5.237E-01  2.439E+00  4.045E-04  1.430E-03 -1.016E-03
   1    4   56     1    56    4.7700E-01  4.1394E-04   4.7659E-01  0.000E+00  0.000E+00  0.000E+00  1.23873E+02  5.235E-01  2.439E+00  4.044E-04  1.425E-03 -1.011E-03
   1    4   57     1    57    4.7659E-01  4.1379E-04   4.7617E-01  0.000E+00  0.000E+00  0.000E+00  1.23573E+02  5.233E-01  2.439E+00  4.044E-04  1.422E-03 -1.009E-03
   1    4   58     1    58    4.7617E-01  4.1364E-04   4.7576E-01  0.000E+00  0.000E+00  0.000E+00  1.23273E+02  5.231E-01  2.438E+00  4.043E-04  1.421E-03 -1.007E-03
   1    4   59     1    59    4.7576E-01  4.1349E-04   4.7535E-01  0.000E+00  0.000E+00  0.000E+00  1.22973E+02  5.229E-01  2.438E+00  4.042E-04  1.565E-03 -1.151E-03
   1    4   60     1    60    4.7535E-01  4.1334E-04   4.7493E-01  0.000E+00  0.000E+00  0.000E+00  1.22673E+02  5.227E-01  2.438E+00  4.042E-04  1.563E-03 -1.149E-03
   1    4   61     1    61    4.7493E-01  4.1319E-04   4.7452E-01  0.000E+00  0.000E+00  0.000E+00  1.22372E+02  5.225E-01  2.438E+00  4.041E-04  1.535E-03 -1.122E-03
   1    4   62     1    62    4.7452E-01  4.1304E-04   4.7411E-01  0.000E+00  0.000E+00  0.000E+00  1.22072E+02  5.223E-01  2.437E+00  4.040E-04  1.510E-03 -1.097E-03
   1    4   63     1    63    4.7411E-01  4.1289E-04   4.7370E-01  0.000E+00  0.000E+00  0.000E+00  1.21772E+02  5.221E-01  2.437E+00  4.040E-04  1.434E-03 -1.021E-03
   1    4   64     1    64    4.7370E-01  4.1275E-04   4.7328E-01  0.000E+00  0.000E+00  0.000E+00  1.21472E+02  5.219E-01  2.437E+00  4.039E-04  1.417E-03 -1.004E-03
   1    4   65     1    65    4.7328E-01  4.1260E-04   4.7287E-01  0.000E+00  0.000E+00  0.000E+00  1.21172E+02  5.217E-01  2.437E+00  4.038E-04  1.399E-03 -9.858E-04
   1    4   66     1    66    4.7287E-01  4.1245E-04   4.7246E-01  0.000E+00  0.000E+00  0.000E+00  1.20871E+02  5.215E-01  2.436E+00  4.038E-04  1.367E-03 -9.546E-04
   1    4   67     1    67    4.7246E-01  4.1230E-04   4.7205E-01  0.000E+00  0.000E+00  0.000E+00  1.20571E+02  5.213E-01  2.436E+00  4.037E-04  1.324E-03 -9.113E-04
   1    4   68     1    68    4.7205E-01  4.1215E-04   4.7163E-01  0.000E+00  0.000E+00  0.000E+00  1.20271E+02  5.211E-01  2.436E+00  4.036E-04  1.281E-03 -8.688E-04
   1    4   69     1    69    4.7163E-01  4.1200E-04   4.7122E-01  0.000E+00  0.000E+00  0.000E+00  1.19971E+02  5.209E-01  2.436E+00  4.036E-04  1.243E-03 -8.311E-04
   1    4   70     1    70    4.7122E-01  4.1185E-04   4.7081E-01  0.000E+00  0.000E+00  0.000E+00  1.19671E+02  5.207E-01  2.435E+00  4.035E-04  1.197E-03 -7.850E-04
   1    4   71     1    71    4.7081E-01  4.1170E-04   4.7040E-01  0.000E+00  0.000E+00  0.000E+00  1.19370E+02  5.205E-01  2.435E+00  4.034E-04  1.166E-03 -7.538E-04
   1    4   72     1    72    4.7040E-01  4.1155E-04   4.6999E-01  0.000E+00  0.000E+00  0.000E+00  1.19070E+02  5.203E-01  2.435E+00  4.034E-04  1.134E-03 -7.222E-04
   1    4   73     1    73    4.6999E-01  4.1141E-04   4.6957E-01  0.000E+00  0.000E+00  0.000E+00  1.18770E+02  5.201E-01  2.435E+00  4.033E-04  1.089E-03 -6.773E-04
   1    4   74     1    74    4.6957E-01  4.1126E-04   4.6916E-01  0.000E+00  0.000E+00  0.000E+00  1.18470E+02  5.199E-01  2.434E+00  4.033E-04  1.062E-03 -6.507E-04
   1    4   75     1    75    4.6916E-01  4.1111E-04   4.6875E-01  0.000E+00  0.000E+00  0.000E+00  1.18170E+02  5.196E-01  2.434E+00  4.032E-04  1.036E-03 -6.250E-04
   1    4   76     1    76    4.6875E-01  4.1096E-04   4.6834E-01  0.000E+00  0.000E+00  0.000E+00  1.17869E+02  5.194E-01  2.434E+00  4.031E-04  9.879E-04 -5.768E-04
   1    4   77     1    77    4.6834E-01  4.1081E-04   4.6793E-01  0.000E+00  0.000E+00  0.000E+00  1.17569E+02  5.192E-01  2.434E+00  4.031E-04  9.367E-04 -5.257E-04
   1    4   78     1    78    4.6793E-01  4.1066E-04   4.6752E-01  0.000E+00  0.000E+00  0.000E+00  1.17269E+02  5.190E-01  2.433E+00  4.030E-04  9.082E-04 -4.973E-04
   1    4   79     1    79    4.6752E-01  4.1051E-04   4.6711E-01  0.000E+00  0.000E+00  0.000E+00  1.16969E+02  5.188E-01  2.433E+00  4.029E-04  8.820E-04 -4.713E-04
   1    4   80     1    80    4.6711E-01  4.1037E-04   4.6670E-01  0.000E+00  0.000E+00  0.000E+00  1.16669E+02  5.186E-01  2.433E+00  4.029E-04  8.581E-04 -4.475E-04
   1    4   81     1    81    4.6670E-01  4.1022E-04   4.6629E-01  0.000E+00  0.000E+00  0.000E+00  1.16368E+02  5.184E-01  2.433E+00  4.028E-04  8.407E-04 -4.303E-04
   1    4   82     1    82    4.6629E-01  4.1007E-04   4.6588E-01  0.000E+00  0.000E+00  0.000E+00  1.16068E+02  5.182E-01  2.433E+00  4.027E-04  8.134E-04 -4.032E-04
   1    4   83     1    83    4.6588E-01  4.0992E-04   4.6547E-01  0.000E+00  0.000E+00  0.000E+00  1.15768E+02  5.180E-01  2.432E+00  4.027E-04  7.869E-04 -3.768E-04
   1    4   84     1    84    4.6547E-01  4.0977E-04   4.6506E-01  0.000E+00  0.000E+00  0.000E+00  1.15468E+02  5.178E-01  2.432E+00  4.026E-04  7.612E-04 -3.512E-04
   1    4   85     1    85    4.6506E-01  4.0962E-04   4.6465E-01  0.000E+00  0.000E+00  0.000E+00  1.15168E+02  5.176E-01  2.432E+00  4.025E-04  7.391E-04 -3.293E-04
   1    4   86     1    86    4.6465E-01  4.0947E-04   4.6424E-01  0.000E+00  0.000E+00  0.000E+00  1.14867E+02  5.174E-01  2.432E+00  4.025E-04  7.391E-04 -3.294E-04
   1    4   87     1    87    4.6424E-01  4.0933E-04   4.6383E-01  0.000E+00  0.000E+00  0.000E+00  1.14567E+02  5.172E-01  2.431E+00  4.024E-04  7.204E-04 -3.109E-04
   1    4   88     1    88    4.6383E-01  4.0918E-04   4.6342E-01  0.000E+00  0.000E+00  0.000E+00  1.14267E+02  5.170E-01  2.431E+00  4.023E-04  6.858E-04 -2.764E-04
   1    4   89     1    89    4.6342E-01  4.0903E-04   4.6301E-01  0.000E+00  0.000E+00  0.000E+00  1.13967E+02  5.168E-01  2.431E+00  4.023E-04  6.607E-04 -2.514E-04
   1    4   90     1    90    4.6301E-01  4.0888E-04   4.6260E-01  0.000E+00  0.000E+00  0.000E+00  1.13667E+02  5.166E-01  2.431E+00  4.022E-04  6.362E-04 -2.271E-04
   1    4   91     1    91    4.6260E-01  4.0873E-04   4.6219E-01  0.000E+00  0.000E+00  0.000E+00  1.13366E+02  5.164E-01  2.430E+00  4.021E-04  6.149E-04 -2.060E-04
   1    4   92     1    92    4.6219E-01  4.0859E-04   4.6179E-01  0.000E+00  0.000E+00  0.000E+00  1.13066E+02  5.162E-01  2.430E+00  4.021E-04  6.120E-04 -2.033E-04
   1    4   93     1    93    4.6179E-01  4.0844E-04   4.6138E-01  0.000E+00  0.000E+00  0.000E+00  1.12766E+02  5.160E-01  2.430E+00  4.020E-04  5.689E-04 -1.603E-04
   1    4   94     1    94    4.6138E-01  4.0829E-04   4.6097E-01  0.000E+00  0.000E+00  0.000E+00  1.12466E+02  5.158E-01  2.430E+00  4.019E-04  5.557E-04 -1.473E-04
   1    4   95     1    95    4.6097E-01  4.0814E-04   4.6056E-01  0.000E+00  0.000E+00  0.000E+00  1.12166E+02  5.156E-01  2.429E+00  4.019E-04  5.322E-04 -1.239E-04
   1    4   96     1    96    4.6056E-01  4.0799E-04   4.6015E-01  0.000E+00  0.000E+00  0.000E+00  1.11865E+02  5.154E-01  2.429E+00  4.018E-04  5.092E-04 -1.011E-04
   1    4   97     1    97    4.6015E-01  4.0784E-04   4.5975E-01  0.000E+00  0.000E+00  0.000E+00  1.11565E+02  5.152E-01  2.429E+00  4.017E-04  4.869E-04 -7.888E-05
   1    4   98     1    98    4.5975E-01  4.0770E-04   4.5934E-01  0.000E+00  0.000E+00  0.000E+00  1.11265E+02  5.150E-01  2.429E+00  4.017E-04  4.652E-04 -5.735E-05
   1    4   99     1    99    4.5934E-01  4.0755E-04   4.5893E-01  0.000E+00  0.000E+00  0.000E+00  1.10965E+02  5.148E-01  2.428E+00  4.016E-04  4.671E-04 -5.938E-05
   1    4  100     1   100    4.5893E-01  4.0740E-04   4.5852E-01  0.000E+00  0.000E+00  0.000E+00  1.10665E+02  5.146E-01  2.428E+00  4.015E-04  4.696E-04 -6.199E-05



1
  VOLUMETRIC BUDGET FOR UNSATURATED ZONE BENEATH STREAMS AT END OF TIME STEP    30 STRESS PERIOD  46
  ------------------------------------------------------------------------------------------------

    CUMULATIVE VOLUMES             L**3    RATES FOR THIS TIME STEP         L**3/T
    ------------------                     ------------------------


          STREAM LOSS =     34963496.0000            STREAM LOSS =        4.1477E-02
    CHANGE IN STORAGE =      1294180.5000      CHANGE IN STORAGE =       -6.4253E-02
       RECHARGE TO GW =     33676840.0000         RECHARGE TO GW =            0.1057

             TOTAL IN =     34963496.0000               TOTAL IN =            0.1057

            TOTAL OUT =     34971020.0000              TOTAL OUT =            0.1057

             IN - OUT =        -7524.0000               IN - OUT =       -1.7606E-05

  PERCENT DISCREPANCY =           -0.01      PERCENT DISCREPANCY =            -0.00



1
  VOLUMETRIC BUDGET FOR ENTIRE MODEL AT END OF TIME STEP   30, STRESS PERIOD  46
  ------------------------------------------------------------------------------

     CUMULATIVE VOLUMES      L**3       RATES FOR THIS TIME STEP      L**3/T
     ------------------                 ------------------------

           IN:                                      IN:
           ---                                      ---
             STORAGE     =   114952424.0000               STORAGE     =           0.3536
       CONSTANT HEAD     =           0.0000         CONSTANT HEAD     =           0.0000
               WELLS     =           0.0000                 WELLS     =           0.0000
     HEAD DEP BOUNDS     =     3132522.2500       HEAD DEP BOUNDS     =       9.1866E-02
      STREAM LEAKAGE     =    33676540.0000        STREAM LEAKAGE     =           0.1057

                TOTAL IN =   151761488.0000                  TOTAL IN =           0.5512

          OUT:                                     OUT:
          ----                                     ----
             STORAGE     =     3634496.2500               STORAGE     =           0.0000
       CONSTANT HEAD     =           0.0000         CONSTANT HEAD     =           0.0000
               WELLS     =   131741136.0000                 WELLS     =           0.5512
     HEAD DEP BOUNDS     =    16385952.0000       HEAD DEP BOUNDS     =           0.0000
      STREAM LEAKAGE     =           0.0000        STREAM LEAKAGE     =           0.0000

               TOTAL OUT =   151761584.0000                 TOTAL OUT =           0.5512

                IN - OUT =         -96.0000                  IN - OUT =           0.0000

     PERCENT DISCREPANCY =          -0.00         PERCENT DISCREPANCY =           0.00






         TIME SUMMARY AT END OF TIME STEP   30 IN STRESS PERIOD   46
                    SECONDS     MINUTES      HOURS       DAYS        YEARS
                    -----------------------------------------------------------
   TIME STEP LENGTH 2.49961E+05  4166.0      69.434      2.8931     7.92080E-03
 STRESS PERIOD TIME 2.59200E+06  43200.      720.00      30.000     8.21355E-02
         TOTAL TIME 1.19232E+08 1.98720E+06  33120.      1380.0      3.7782    
1
1
                            STRESS PERIOD NO.   47, LENGTH =   2592000.    
                            -----------------------------------------------

                              NUMBER OF TIME STEPS =    30

                               MULTIPLIER FOR DELT =     1.100

                            INITIAL TIME STEP SIZE =   15757.40    

 REUSING NON-PARAMETER WELLS FROM LAST STRESS PERIOD

      1 WELL 

 REUSING NON-PARAMETER GHB CELLS FROM LAST STRESS PERIOD

      7 GHB CELLS



 CLASSIFICATION & COUNT OF STREAM SEGMENTS BASED ON SOURCE OF INFLOW:

                HEADWATER     DIVERSION     RECEIVES TRIBUTARY FLOW
                ---------     ---------     -----------------------
                     1              0               0



                    INPUT DATA FOR EACH STREAM SEGMENT
 ---------------------------------------------------------------------------------------------

 SEGMENT    SEG.     INFLOW   OVERLAND   STREAM    STREAM   ICALC  OUTFLOW  DIVERSION PRIORITY
    NO.    LENGTH     RATE     RUNOFF      ET       PPT.    METH.  TO SEG.  FROM SEG.    NO.

      1  2.000E+04 2.100E+00 0.000E+00 0.000E+00 0.000E+00    2        0        0        0


         STREAMBED PROPERTIES AND STREAM DIMENSIONS

 SEGMENT     BED HYD. COND.      BED THICKNESS     ELEV.-TOP OF BED     WIDTH OF STREAM     DEPTH OF STREAM    STREAM ROUGHNESS
    No.     UPPER     LOWER     UPPER     LOWER     UPPER     LOWER     UPPER     LOWER     UPPER     LOWER   CHANNEL      BANK

     1  3.500E-07 3.500E-07                                                                                 3.000E-02 4.000E-02

  EIGHT POINT CROSS-SECTION DATA FOR SEGMENTS WITH ICALC = 2
    X VALUES X VALUES START FROM LEFT SIDE LOOKING DOWNSTREAM

     SEGMENT NO.        X1        X2        X3        X4        X5        X6        X7        X8
            1      0.000E+00 2.000E+00 4.000E+00 6.000E+00 8.000E+00 1.000E+01 1.200E+01 1.400E+01

    Z VALUES ARE RELATIVE TO STREAMBED ELEVATION

     SEGMENT NO.          Z1        Z2        Z3        Z4        Z5        Z6        Z7        Z8
            1      6.000E+00 4.500E+00 3.500E+00 0.000E+00 3.000E-01 3.500E+00 4.500E+00 6.000E+00



 
 SOLVING FOR HEAD 
                                                   Max.-Head-Change                         Max.-Flux-Residual
  Residual-Control   Outer-Iter.   Inner-Iter.     Column Row Layer    Maximum-Head-Change  Column Row Layer    Maximum-Flux-Residual          L2-NORM 
          0                 1           2            50    3     1       0.2354277299E+00      50    3    1         0.8303993637E-01      0.1065140140E+00
          0                 2           2            50    3     1      -0.2448096942E-01      50    3    1        -0.8867308525E-02      0.1136570125E-01
          0                 3           2            50    3     1       0.2167148198E-02      50    3    1         0.7924466428E-03      0.1016433006E-02
          0                 4           2            50    3     1      -0.1720826488E-03      50    3    1        -0.6351911094E-04      0.8150766525E-04
          0                 5           1            50    3     1       0.1198674147E-04      50    3    1         0.4465054015E-05      0.5730957059E-05
          0                 6           1            50    3     1      -0.7197748109E-06      50    3    1        -0.2705659868E-06      0.3473151843E-06

    ------------------------------------------------
       NWT REQUIRED            6 OUTER ITERATIONS 
       AND A TOTAL OF         10 INNER ITERATIONS.
    ------------------------------------------------

 NO OUTPUT CONTROL FOR STRESS PERIOD   47   TIME STEP    1
 
 WELLS WITH REDUCED PUMPING FOR STRESS PERIOD    47 TIME STEP     1
   LAY   ROW   COL         APPL.Q          ACT.Q        GW-HEAD       CELL-BOT
     1     3    50  -0.106017E+01  -0.251889E+00   0.354898E+01   0.000000E+00
     1     5    55  -0.106017E+01  -0.196226E+00   0.305071E+01   0.000000E+00
 
 
 SOLVING FOR HEAD 
                                                   Max.-Head-Change                         Max.-Flux-Residual
  Residual-Control   Outer-Iter.   Inner-Iter.     Column Row Layer    Maximum-Head-Change  Column Row Layer    Maximum-Flux-Residual          L2-NORM 
          0                 1           2            50    3     1       0.1464822148E+00      50    3    1         0.4865264928E-01      0.6458727370E-01
          0                 2           2            50    3     1      -0.1481687957E-01      50    3    1        -0.5072131030E-02      0.6707358782E-02
          0                 3           2            50    3     1       0.1312181771E-02      50    3    1         0.4545227010E-03      0.6021298327E-03
          0                 4           1            50    3     1      -0.1041284614E-03      50    3    1        -0.3642265530E-04      0.4831630232E-04
          0                 5           1            50    3     1       0.7253180498E-05      50    3    1         0.2560378711E-05      0.3399275511E-05
          0                 6           1            50    3     1      -0.4355353539E-06      50    3    1        -0.1551492251E-06      0.2060697289E-06

    ------------------------------------------------
       NWT REQUIRED            6 OUTER ITERATIONS 
       AND A TOTAL OF          9 INNER ITERATIONS.
    ------------------------------------------------

 NO OUTPUT CONTROL FOR STRESS PERIOD   47   TIME STEP    2
 
 WELLS WITH REDUCED PUMPING FOR STRESS PERIOD    47 TIME STEP     2
   LAY   ROW   COL         APPL.Q          ACT.Q        GW-HEAD       CELL-BOT
     1     3    50  -0.106017E+01  -0.268386E+00   0.368186E+01   0.000000E+00
     1     5    55  -0.106017E+01  -0.209060E+00   0.316184E+01   0.000000E+00
 
 
 SOLVING FOR HEAD 
                                                   Max.-Head-Change                         Max.-Flux-Residual
  Residual-Control   Outer-Iter.   Inner-Iter.     Column Row Layer    Maximum-Head-Change  Column Row Layer    Maximum-Flux-Residual          L2-NORM 
          0                 1           2            50    3     1       0.8937872632E-01      50    3    1         0.2767754617E-01      0.3973437795E-01
          0                 2           2            50    3     1      -0.8839159811E-02      50    3    1        -0.2842975699E-02      0.4023564602E-02
          0                 3           2            50    3     1       0.7814244288E-03      50    3    1         0.2551765990E-03      0.3626377630E-03
          0                 4           1            50    3     1      -0.6195628101E-04      50    3    1        -0.2044498372E-04      0.2917069379E-04
          0                 5           1            50    3     1       0.4315292438E-05      50    3    1         0.1437224727E-05      0.2056149040E-05
          0                 6           1            50    3     1      -0.2591218213E-06      50    3    1        -0.8709005991E-07      0.1247781936E-06

    ------------------------------------------------
       NWT REQUIRED            6 OUTER ITERATIONS 
       AND A TOTAL OF          9 INNER ITERATIONS.
    ------------------------------------------------

 NO OUTPUT CONTROL FOR STRESS PERIOD   47   TIME STEP    3
 
 WELLS WITH REDUCED PUMPING FOR STRESS PERIOD    47 TIME STEP     3
   LAY   ROW   COL         APPL.Q          ACT.Q        GW-HEAD       CELL-BOT
     1     3    50  -0.105986E+01  -0.278545E+00   0.376312E+01   0.000000E+00
     1     5    55  -0.105986E+01  -0.217220E+00   0.323183E+01   0.000000E+00
 
 
 SOLVING FOR HEAD 
                                                   Max.-Head-Change                         Max.-Flux-Residual
  Residual-Control   Outer-Iter.   Inner-Iter.     Column Row Layer    Maximum-Head-Change  Column Row Layer    Maximum-Flux-Residual          L2-NORM 
          0                 1           2            50    3     1       0.5356001865E-01      50    3    1         0.1526936041E-01      0.2623997478E-01
          0                 2           2            50    3     1      -0.5184384413E-02      50    3    1        -0.1553538619E-02      0.2587323397E-02
          0                 3           2            50    3     1       0.4565193960E-03      50    3    1         0.1395802006E-03      0.2344764898E-03
          0                 4           1            50    3     1      -0.3614667001E-04      50    3    1        -0.1118218395E-04      0.1897679427E-04
          0                 5           1            50    3     1       0.2517135715E-05      50    3    1         0.7860784257E-06      0.1343983266E-05
          0                 6           1            50    3     1      -0.1511455144E-06      50    3    1        -0.4763286959E-07      0.8179394558E-07

    ------------------------------------------------
       NWT REQUIRED            6 OUTER ITERATIONS 
       AND A TOTAL OF          9 INNER ITERATIONS.
    ------------------------------------------------

 NO OUTPUT CONTROL FOR STRESS PERIOD   47   TIME STEP    4
 
 WELLS WITH REDUCED PUMPING FOR STRESS PERIOD    47 TIME STEP     4
   LAY   ROW   COL         APPL.Q          ACT.Q        GW-HEAD       CELL-BOT
     1     3    50  -0.106015E+01  -0.284822E+00   0.381192E+01   0.000000E+00
     1     5    55  -0.106015E+01  -0.222392E+00   0.327490E+01   0.000000E+00
 
 
 SOLVING FOR HEAD 
                                                   Max.-Head-Change                         Max.-Flux-Residual
  Residual-Control   Outer-Iter.   Inner-Iter.     Column Row Layer    Maximum-Head-Change  Column Row Layer    Maximum-Flux-Residual          L2-NORM 
          0                 1           2            50    3     1       0.3249637532E-01      50    3    1         0.8396009606E-02      0.2004064520E-01
          0                 2           2            50    3     1      -0.3078079984E-02      50    3    1        -0.8490097756E-03      0.1939853743E-02
          0                 3           2            50    3     1       0.2693789182E-03      50    3    1         0.7632760397E-04      0.1769616548E-03
          0                 4           1            50    3     1      -0.2128508164E-04      50    3    1        -0.6114460432E-05      0.1445117916E-04
          0                 5           1            50    3     1       0.1481635049E-05      50    3    1         0.4298293331E-06      0.1030994983E-05
          0                 6           1            50    3     1      -0.8896415298E-07      50    3    1        -0.2604550847E-07      0.6304257991E-07

    ------------------------------------------------
       NWT REQUIRED            6 OUTER ITERATIONS 
       AND A TOTAL OF          9 INNER ITERATIONS.
    ------------------------------------------------

 NO OUTPUT CONTROL FOR STRESS PERIOD   47   TIME STEP    5
 
 WELLS WITH REDUCED PUMPING FOR STRESS PERIOD    47 TIME STEP     5
   LAY   ROW   COL         APPL.Q          ACT.Q        GW-HEAD       CELL-BOT
     1     3    50  -0.106007E+01  -0.288592E+00   0.384159E+01   0.000000E+00
     1     5    55  -0.106007E+01  -0.225556E+00   0.330151E+01   0.000000E+00
 
 
 SOLVING FOR HEAD 
                                                   Max.-Head-Change                         Max.-Flux-Residual
  Residual-Control   Outer-Iter.   Inner-Iter.     Column Row Layer    Maximum-Head-Change  Column Row Layer    Maximum-Flux-Residual          L2-NORM 
          0                 1           2            50    2     1       0.2101539433E-01      50    3    1         0.4665907174E-02      0.1750284163E-01
          0                 2           2            50    2     1      -0.2072212487E-02      50    3    1        -0.4698867492E-03      0.1685959178E-02
          0                 3           2            50    2     1       0.1844080812E-03      50    3    1         0.4226050662E-04      0.1546315353E-03
          0                 4           1            50    2     1      -0.1462890557E-04      50    3    1        -0.3385278546E-05      0.1272795104E-04
          0                 5           1            50    2     1       0.1018962226E-05      50    3    1         0.2379737758E-06      0.9143394282E-06
          0                 6           1            50    2     1      -0.6118519469E-07      50    3    1        -0.1441984634E-07      0.5617922036E-07

    ------------------------------------------------
       NWT REQUIRED            6 OUTER ITERATIONS 
       AND A TOTAL OF          9 INNER ITERATIONS.
    ------------------------------------------------

 NO OUTPUT CONTROL FOR STRESS PERIOD   47   TIME STEP    6
 
 WELLS WITH REDUCED PUMPING FOR STRESS PERIOD    47 TIME STEP     6
   LAY   ROW   COL         APPL.Q          ACT.Q        GW-HEAD       CELL-BOT
     1     3    50  -0.105994E+01  -0.290934E+00   0.386015E+01   0.000000E+00
     1     5    55  -0.105994E+01  -0.227536E+00   0.331827E+01   0.000000E+00
 
 
 SOLVING FOR HEAD 
                                                   Max.-Head-Change                         Max.-Flux-Residual
  Residual-Control   Outer-Iter.   Inner-Iter.     Column Row Layer    Maximum-Head-Change  Column Row Layer    Maximum-Flux-Residual          L2-NORM 
          0                 1           2            50    2     1       0.1889093748E-01      50    2    1         0.2711493247E-02      0.1647967517E-01
          0                 2           2            50    2     1      -0.1863353730E-02      50    2    1        -0.2715336275E-03      0.1589840570E-02
          0                 3           2            50    2     1       0.1657995351E-03      50    2    1         0.2443394671E-04      0.1463192827E-03
          0                 4           1            50    2     1      -0.1315160724E-04      50    2    1        -0.1957193010E-05      0.1211094106E-04
          0                 5           1            50    2     1       0.9160276796E-06      50    2    1         0.1375885570E-06      0.8747020395E-06

    ------------------------------------------------
       NWT REQUIRED            5 OUTER ITERATIONS 
       AND A TOTAL OF          8 INNER ITERATIONS.
    ------------------------------------------------

 NO OUTPUT CONTROL FOR STRESS PERIOD   47   TIME STEP    7
 
 WELLS WITH REDUCED PUMPING FOR STRESS PERIOD    47 TIME STEP     7
   LAY   ROW   COL         APPL.Q          ACT.Q        GW-HEAD       CELL-BOT
     1     3    50  -0.105988E+01  -0.292470E+00   0.387225E+01   0.000000E+00
     1     5    55  -0.105988E+01  -0.228830E+00   0.332914E+01   0.000000E+00
 
 
 SOLVING FOR HEAD 
                                                   Max.-Head-Change                         Max.-Flux-Residual
  Residual-Control   Outer-Iter.   Inner-Iter.     Column Row Layer    Maximum-Head-Change  Column Row Layer    Maximum-Flux-Residual          L2-NORM 
          0                 1           2            50    2     1       0.1674755277E-01      50    2    1         0.2215728574E-02      0.1602624077E-01
          0                 2           2            50    2     1      -0.1652237371E-02      50    2    1        -0.2219493749E-03      0.1550028757E-02
          0                 3           2            50    2     1       0.1469976843E-03      50    2    1         0.1997153125E-04      0.1429769144E-03
          0                 4           1            50    2     1      -0.1165912701E-04      50    2    1        -0.1599751843E-05      0.1188316372E-04
          0                 5           1            50    2     1       0.8120364799E-06      50    2    1         0.1124608007E-06      0.8620886469E-06

    ------------------------------------------------
       NWT REQUIRED            5 OUTER ITERATIONS 
       AND A TOTAL OF          8 INNER ITERATIONS.
    ------------------------------------------------

 NO OUTPUT CONTROL FOR STRESS PERIOD   47   TIME STEP    8
 
 WELLS WITH REDUCED PUMPING FOR STRESS PERIOD    47 TIME STEP     8
   LAY   ROW   COL         APPL.Q          ACT.Q        GW-HEAD       CELL-BOT
     1     3    50  -0.105991E+01  -0.293541E+00   0.388052E+01   0.000000E+00
     1     5    55  -0.105991E+01  -0.229721E+00   0.333649E+01   0.000000E+00
 
 
 SOLVING FOR HEAD 
                                                   Max.-Head-Change                         Max.-Flux-Residual
  Residual-Control   Outer-Iter.   Inner-Iter.     Column Row Layer    Maximum-Head-Change  Column Row Layer    Maximum-Flux-Residual          L2-NORM 
          0                 1           2            50    2     1       0.1475264931E-01      50    2    1         0.1785720030E-02      0.1579984995E-01
          0                 2           2            50    2     1      -0.1455507965E-02      50    2    1        -0.1788850467E-03      0.1530453642E-02
          0                 3           2            50    2     1       0.1294813508E-03      50    2    1         0.1609643273E-04      0.1414099096E-03
          0                 4           1            50    2     1      -0.1026878390E-04      50    2    1        -0.1289350682E-05      0.1179511658E-04
          0                 5           1            50    2     1       0.7151605210E-06      50    2    1         0.9063993656E-07      0.8592668586E-06

    ------------------------------------------------
       NWT REQUIRED            5 OUTER ITERATIONS 
       AND A TOTAL OF          8 INNER ITERATIONS.
    ------------------------------------------------

 NO OUTPUT CONTROL FOR STRESS PERIOD   47   TIME STEP    9
 
 WELLS WITH REDUCED PUMPING FOR STRESS PERIOD    47 TIME STEP     9
   LAY   ROW   COL         APPL.Q          ACT.Q        GW-HEAD       CELL-BOT
     1     3    50  -0.105996E+01  -0.294324E+00   0.388650E+01   0.000000E+00
     1     5    55  -0.105996E+01  -0.230364E+00   0.334173E+01   0.000000E+00
 
 
 SOLVING FOR HEAD 
                                                   Max.-Head-Change                         Max.-Flux-Residual
  Residual-Control   Outer-Iter.   Inner-Iter.     Column Row Layer    Maximum-Head-Change  Column Row Layer    Maximum-Flux-Residual          L2-NORM 
          0                 1           2            50    2     1       0.1298957804E-01      50    2    1         0.1430001966E-02      0.1567352749E-01
          0                 2           2            50    2     1      -0.1281517230E-02      50    2    1        -0.1432369018E-03      0.1519639990E-02
          0                 3           1            50    2     1       0.1139915896E-03      50    2    1         0.1288889671E-04      0.1406148158E-03
          0                 4           1            50    2     1      -0.9039117887E-05      50    2    1        -0.1032420508E-05      0.1176619824E-04
          0                 5           1            50    2     1       0.6294761979E-06      50    2    1         0.7257803517E-07      0.8606023882E-06

    ------------------------------------------------
       NWT REQUIRED            5 OUTER ITERATIONS 
       AND A TOTAL OF          7 INNER ITERATIONS.
    ------------------------------------------------

 NO OUTPUT CONTROL FOR STRESS PERIOD   47   TIME STEP   10
 
 WELLS WITH REDUCED PUMPING FOR STRESS PERIOD    47 TIME STEP    10
   LAY   ROW   COL         APPL.Q          ACT.Q        GW-HEAD       CELL-BOT
     1     3    50  -0.105991E+01  -0.294911E+00   0.389116E+01   0.000000E+00
     1     5    55  -0.105991E+01  -0.230839E+00   0.334576E+01   0.000000E+00
 
 
 SOLVING FOR HEAD 
                                                   Max.-Head-Change                         Max.-Flux-Residual
  Residual-Control   Outer-Iter.   Inner-Iter.     Column Row Layer    Maximum-Head-Change  Column Row Layer    Maximum-Flux-Residual          L2-NORM 
          0                 1           2             1    1     1      -0.1235534145E-01      50    2    1         0.1144643113E-02      0.1559659193E-01
          0                 2           2             1    1     1       0.1169797255E-02      50    2    1        -0.1146381686E-03      0.1512539609E-02
          0                 3           1            50    1     1       0.1010225335E-03      50    2    1         0.1031566081E-04      0.1401198420E-03
          0                 4           1            50    1     1      -0.8015399404E-05      50    2    1        -0.8262989915E-06      0.1176090196E-04
          0                 5           1            50    1     1       0.5582079414E-06       1    4    1         0.6974125810E-07      0.8636566771E-06

    ------------------------------------------------
       NWT REQUIRED            5 OUTER ITERATIONS 
       AND A TOTAL OF          7 INNER ITERATIONS.
    ------------------------------------------------

 NO OUTPUT CONTROL FOR STRESS PERIOD   47   TIME STEP   11
 
 WELLS WITH REDUCED PUMPING FOR STRESS PERIOD    47 TIME STEP    11
   LAY   ROW   COL         APPL.Q          ACT.Q        GW-HEAD       CELL-BOT
     1     3    50  -0.106003E+01  -0.295407E+00   0.389475E+01   0.000000E+00
     1     5    55  -0.106003E+01  -0.231235E+00   0.334882E+01   0.000000E+00
 
 
 SOLVING FOR HEAD 
                                                   Max.-Head-Change                         Max.-Flux-Residual
  Residual-Control   Outer-Iter.   Inner-Iter.     Column Row Layer    Maximum-Head-Change  Column Row Layer    Maximum-Flux-Residual          L2-NORM 
          0                 1           2             1    1     1      -0.1358304048E-01       1    3    1        -0.9938889079E-03      0.1555236547E-01
          0                 2           2             1    1     1       0.1281983972E-02       1    3    1         0.9938656269E-04      0.1508426737E-02
          0                 3           2             1    1     1      -0.1097008019E-03       1    3    1        -0.8944955656E-05      0.1398988731E-03
          0                 4           1             1    1     1       0.8416391072E-05       1    4    1        -0.7803165225E-06      0.1178017066E-04
          0                 5           1             1    1     1      -0.5706859458E-06       1    4    1         0.7190617879E-07      0.8684859342E-06

    ------------------------------------------------
       NWT REQUIRED            5 OUTER ITERATIONS 
       AND A TOTAL OF          8 INNER ITERATIONS.
    ------------------------------------------------

 NO OUTPUT CONTROL FOR STRESS PERIOD   47   TIME STEP   12
 
 WELLS WITH REDUCED PUMPING FOR STRESS PERIOD    47 TIME STEP    12
   LAY   ROW   COL         APPL.Q          ACT.Q        GW-HEAD       CELL-BOT
     1     3    50  -0.106005E+01  -0.295796E+00   0.389773E+01   0.000000E+00
     1     5    55  -0.106005E+01  -0.231544E+00   0.335134E+01   0.000000E+00
 
 
 SOLVING FOR HEAD 
                                                   Max.-Head-Change                         Max.-Flux-Residual
  Residual-Control   Outer-Iter.   Inner-Iter.     Column Row Layer    Maximum-Head-Change  Column Row Layer    Maximum-Flux-Residual          L2-NORM 
          0                 1           2             1    1     1      -0.1493107534E-01       1    3    1        -0.9933107536E-03      0.1552773932E-01
          0                 2           2             1    1     1       0.1404764490E-02       1    3    1         0.9932855338E-04      0.1506039157E-02
          0                 3           2             1    1     1      -0.1197891076E-03       1    3    1        -0.8939753517E-05      0.1398213252E-03
          0                 4           1             1    1     1       0.9157108027E-05       1    4    1        -0.7972532110E-06      0.1180826913E-04
          0                 5           1             1    1     1      -0.6186456076E-06       1    4    1         0.7399199120E-07      0.8739348802E-06

    ------------------------------------------------
       NWT REQUIRED            5 OUTER ITERATIONS 
       AND A TOTAL OF          8 INNER ITERATIONS.
    ------------------------------------------------

 NO OUTPUT CONTROL FOR STRESS PERIOD   47   TIME STEP   13
 
 WELLS WITH REDUCED PUMPING FOR STRESS PERIOD    47 TIME STEP    13
   LAY   ROW   COL         APPL.Q          ACT.Q        GW-HEAD       CELL-BOT
     1     3    50  -0.106005E+01  -0.296121E+00   0.390025E+01   0.000000E+00
     1     5    55  -0.106005E+01  -0.231799E+00   0.335345E+01   0.000000E+00
 
 
 SOLVING FOR HEAD 
                                                   Max.-Head-Change                         Max.-Flux-Residual
  Residual-Control   Outer-Iter.   Inner-Iter.     Column Row Layer    Maximum-Head-Change  Column Row Layer    Maximum-Flux-Residual          L2-NORM 
          0                 1           2             1    1     1      -0.1641270275E-01       1    3    1        -0.9927901717E-03      0.1553101324E-01
          0                 2           2             1    1     1       0.1539351753E-02       1    2    1         0.9927637113E-04      0.1504569479E-02
          0                 3           2             1    1     1      -0.1308032451E-03       1    3    1        -0.8935070063E-05      0.1396431934E-03
          0                 4           1             1    1     1       0.9961403324E-05       1    4    1        -0.8135046592E-06      0.1181862358E-04
          0                 5           1             1    1     1      -0.6703303686E-06       1    4    1         0.7600771923E-07      0.8779208894E-06

    ------------------------------------------------
       NWT REQUIRED            5 OUTER ITERATIONS 
       AND A TOTAL OF          8 INNER ITERATIONS.
    ------------------------------------------------

 NO OUTPUT CONTROL FOR STRESS PERIOD   47   TIME STEP   14
 
 WELLS WITH REDUCED PUMPING FOR STRESS PERIOD    47 TIME STEP    14
   LAY   ROW   COL         APPL.Q          ACT.Q        GW-HEAD       CELL-BOT
     1     3    50  -0.106002E+01  -0.296392E+00   0.390242E+01   0.000000E+00
     1     5    55  -0.106002E+01  -0.232012E+00   0.335527E+01   0.000000E+00
 
 
 SOLVING FOR HEAD 
                                                   Max.-Head-Change                         Max.-Flux-Residual
  Residual-Control   Outer-Iter.   Inner-Iter.     Column Row Layer    Maximum-Head-Change  Column Row Layer    Maximum-Flux-Residual          L2-NORM 
          0                 1           2             3    4     1      -0.1838421348E-01       5    3    1        -0.9928637851E-03      0.1558694251E-01
          0                 2           2             3    1     1       0.1699505921E-02       5    3    1         0.9928726408E-04      0.1505898313E-02
          0                 3           2             3    1     1      -0.1438663171E-03       5    3    1        -0.8936069914E-05      0.1396325119E-03
          0                 4           1             3    1     1       0.1090670932E-04       1    4    1        -0.7858758870E-06      0.1184163342E-04
          0                 5           1             1    1     1      -0.7300665794E-06       1    4    1         0.7535631852E-07      0.8829073283E-06

    ------------------------------------------------
       NWT REQUIRED            5 OUTER ITERATIONS 
       AND A TOTAL OF          8 INNER ITERATIONS.
    ------------------------------------------------

 NO OUTPUT CONTROL FOR STRESS PERIOD   47   TIME STEP   15
 
 WELLS WITH REDUCED PUMPING FOR STRESS PERIOD    47 TIME STEP    15
   LAY   ROW   COL         APPL.Q          ACT.Q        GW-HEAD       CELL-BOT
     1     3    50  -0.106002E+01  -0.296625E+00   0.390423E+01   0.000000E+00
     1     5    55  -0.106002E+01  -0.232195E+00   0.335678E+01   0.000000E+00
 
 
 SOLVING FOR HEAD 
                                                   Max.-Head-Change                         Max.-Flux-Residual
  Residual-Control   Outer-Iter.   Inner-Iter.     Column Row Layer    Maximum-Head-Change  Column Row Layer    Maximum-Flux-Residual          L2-NORM 
          0                 1           2             1    3     1      -0.2013730812E-01       3    3    1        -0.1011552406E-02      0.1563225889E-01
          0                 2           2             1    1     1       0.1875574237E-02       3    3    1         0.1011515270E-03      0.1512971747E-02
          0                 3           2             2    1     1      -0.1583032240E-03       3    3    1        -0.9103902425E-05      0.1405145889E-03
          0                 4           1             3    1     1       0.1196183653E-04       4    4    1        -0.8231216491E-06      0.1194833952E-04
          0                 5           1             3    1     1      -0.7975616477E-06       4    4    1         0.7873461882E-07      0.8937867663E-06

    ------------------------------------------------
       NWT REQUIRED            5 OUTER ITERATIONS 
       AND A TOTAL OF          8 INNER ITERATIONS.
    ------------------------------------------------

 NO OUTPUT CONTROL FOR STRESS PERIOD   47   TIME STEP   16
 
 WELLS WITH REDUCED PUMPING FOR STRESS PERIOD    47 TIME STEP    16
   LAY   ROW   COL         APPL.Q          ACT.Q        GW-HEAD       CELL-BOT
     1     3    50  -0.106002E+01  -0.296818E+00   0.390572E+01   0.000000E+00
     1     5    55  -0.106002E+01  -0.232347E+00   0.335804E+01   0.000000E+00
 
 
 SOLVING FOR HEAD 
                                                   Max.-Head-Change                         Max.-Flux-Residual
  Residual-Control   Outer-Iter.   Inner-Iter.     Column Row Layer    Maximum-Head-Change  Column Row Layer    Maximum-Flux-Residual          L2-NORM 
          0                 1           2             1    1     1      -0.2216622820E-01       1    3    1        -0.1013499358E-02      0.1566341556E-01
          0                 2           2             1    1     1       0.2063283642E-02       1    3    1         0.1013455749E-03      0.1516986717E-02
          0                 3           2             1    1     1      -0.1736529746E-03       1    3    1        -0.9121395287E-05      0.1409970700E-03
          0                 4           1             1    1     1       0.1307638915E-04       1    4    1        -0.8427891736E-06      0.1201604329E-04
          0                 5           1             1    1     1      -0.8682252373E-06       2    4    1         0.8093030957E-07      0.9015505034E-06

    ------------------------------------------------
       NWT REQUIRED            5 OUTER ITERATIONS 
       AND A TOTAL OF          8 INNER ITERATIONS.
    ------------------------------------------------

 NO OUTPUT CONTROL FOR STRESS PERIOD   47   TIME STEP   17
 
 WELLS WITH REDUCED PUMPING FOR STRESS PERIOD    47 TIME STEP    17
   LAY   ROW   COL         APPL.Q          ACT.Q        GW-HEAD       CELL-BOT
     1     3    50  -0.106005E+01  -0.296977E+00   0.390690E+01   0.000000E+00
     1     5    55  -0.106005E+01  -0.232473E+00   0.335904E+01   0.000000E+00
 
 
 SOLVING FOR HEAD 
                                                   Max.-Head-Change                         Max.-Flux-Residual
  Residual-Control   Outer-Iter.   Inner-Iter.     Column Row Layer    Maximum-Head-Change  Column Row Layer    Maximum-Flux-Residual          L2-NORM 
          0                 1           2             1    1     1      -0.2438349086E-01       1    3    1        -0.1010278185E-02      0.1569210651E-01
          0                 2           2             1    1     1       0.2263604124E-02       1    3    1         0.1010235685E-03      0.1519936453E-02
          0                 3           2             1    1     1      -0.1898926370E-03       1    3    1        -0.9092439583E-05      0.1413574394E-03
          0                 4           1             1    1     1       0.1424465742E-04       1    4    1        -0.8571196020E-06      0.1207302661E-04
          0                 5           1             1    1     1      -0.9411596462E-06       2    4    1         0.8261617879E-07      0.9083778915E-06

    ------------------------------------------------
       NWT REQUIRED            5 OUTER ITERATIONS 
       AND A TOTAL OF          8 INNER ITERATIONS.
    ------------------------------------------------

 NO OUTPUT CONTROL FOR STRESS PERIOD   47   TIME STEP   18
 
 WELLS WITH REDUCED PUMPING FOR STRESS PERIOD    47 TIME STEP    18
   LAY   ROW   COL         APPL.Q          ACT.Q        GW-HEAD       CELL-BOT
     1     3    50  -0.106003E+01  -0.297096E+00   0.390785E+01   0.000000E+00
     1     5    55  -0.106003E+01  -0.232570E+00   0.335986E+01   0.000000E+00
 
 
 SOLVING FOR HEAD 
                                                   Max.-Head-Change                         Max.-Flux-Residual
  Residual-Control   Outer-Iter.   Inner-Iter.     Column Row Layer    Maximum-Head-Change  Column Row Layer    Maximum-Flux-Residual          L2-NORM 
          0                 1           2             1    1     1      -0.2680157747E-01       1    3    1        -0.1008520154E-02      0.1571934840E-01
          0                 2           2             1    1     1       0.2481374246E-02       1    3    1         0.1008476432E-03      0.1522777487E-02
          0                 3           2             1    1     1      -0.2074723449E-03       1    3    1        -0.9076636921E-05      0.1416975790E-03
          0                 4           1             1    1     1       0.1550197460E-04       1    4    1        -0.8689466142E-06      0.1212679567E-04
          0                 5           1             1    1     1      -0.1018713978E-05       2    4    1         0.8415588226E-07      0.9146811630E-06
          0                 6           1             1    1     1       0.5807299610E-07       2    4    1        -0.6270283848E-08      0.5908387443E-07

    ------------------------------------------------
       NWT REQUIRED            6 OUTER ITERATIONS 
       AND A TOTAL OF          9 INNER ITERATIONS.
    ------------------------------------------------

 NO OUTPUT CONTROL FOR STRESS PERIOD   47   TIME STEP   19
 
 WELLS WITH REDUCED PUMPING FOR STRESS PERIOD    47 TIME STEP    19
   LAY   ROW   COL         APPL.Q          ACT.Q        GW-HEAD       CELL-BOT
     1     3    50  -0.105998E+01  -0.297176E+00   0.390860E+01   0.000000E+00
     1     5    55  -0.105998E+01  -0.232639E+00   0.336054E+01   0.000000E+00
 
 
 SOLVING FOR HEAD 
                                                   Max.-Head-Change                         Max.-Flux-Residual
  Residual-Control   Outer-Iter.   Inner-Iter.     Column Row Layer    Maximum-Head-Change  Column Row Layer    Maximum-Flux-Residual          L2-NORM 
          0                 1           2             1    1     1      -0.2945231938E-01       1    5    1        -0.1007434736E-02      0.1574707301E-01
          0                 2           2             1    1     1       0.2719622101E-02       1    5    1         0.1007387960E-03      0.1525452600E-02
          0                 3           2             1    1     1      -0.2266497698E-03       1    5    1        -0.9066875924E-05      0.1419957696E-03
          0                 4           1             1    1     1       0.1686749438E-04       1    4    1        -0.8798299334E-06      0.1217480026E-04
          0                 5           1             1    1     1      -0.1101924430E-05       2    4    1         0.8560008879E-07      0.9201908283E-06
          0                 6           1             1    1     1       0.6242389197E-07       2    4    1        -0.6404036412E-08      0.5960152697E-07

    ------------------------------------------------
       NWT REQUIRED            6 OUTER ITERATIONS 
       AND A TOTAL OF          9 INNER ITERATIONS.
    ------------------------------------------------

 NO OUTPUT CONTROL FOR STRESS PERIOD   47   TIME STEP   20
 
 WELLS WITH REDUCED PUMPING FOR STRESS PERIOD    47 TIME STEP    20
   LAY   ROW   COL         APPL.Q          ACT.Q        GW-HEAD       CELL-BOT
     1     3    50  -0.105997E+01  -0.297226E+00   0.390900E+01   0.000000E+00
     1     5    55  -0.105997E+01  -0.232687E+00   0.336095E+01   0.000000E+00
 
 
 SOLVING FOR HEAD 
                                                   Max.-Head-Change                         Max.-Flux-Residual
  Residual-Control   Outer-Iter.   Inner-Iter.     Column Row Layer    Maximum-Head-Change  Column Row Layer    Maximum-Flux-Residual          L2-NORM 
          0                 1           2             3    1     1      -0.3247209186E-01       1    5    1        -0.1006514346E-02      0.1581090200E-01
          0                 2           2             2    1     1       0.2996580278E-02       1    7    1         0.1006486484E-03      0.1528008777E-02
          0                 3           2             2    1     1      -0.2493180214E-03       1    5    1        -0.9058759801E-05      0.1418915247E-03
          0                 4           1             2    1     1       0.1849784617E-04       1    4    1        -0.8511713290E-06      0.1216466817E-04
          0                 5           1             1    1     1      -0.1201188466E-05       1    4    1         0.8395709372E-07      0.9201569038E-06
          0                 6           1             1    1     1       0.6756091617E-07       2    4    1        -0.6346212444E-08      0.5973734649E-07

    ------------------------------------------------
       NWT REQUIRED            6 OUTER ITERATIONS 
       AND A TOTAL OF          9 INNER ITERATIONS.
    ------------------------------------------------

 NO OUTPUT CONTROL FOR STRESS PERIOD   47   TIME STEP   21
 
 WELLS WITH REDUCED PUMPING FOR STRESS PERIOD    47 TIME STEP    21
   LAY   ROW   COL         APPL.Q          ACT.Q        GW-HEAD       CELL-BOT
     1     3    50  -0.106000E+01  -0.297237E+00   0.390901E+01   0.000000E+00
     1     5    55  -0.106000E+01  -0.232707E+00   0.336106E+01   0.000000E+00
 
 
 SOLVING FOR HEAD 
                                                   Max.-Head-Change                         Max.-Flux-Residual
  Residual-Control   Outer-Iter.   Inner-Iter.     Column Row Layer    Maximum-Head-Change  Column Row Layer    Maximum-Flux-Residual          L2-NORM 
          0                 1           2             1    4     1      -0.3621588311E-01       4    3    1        -0.1013038163E-02      0.1589783806E-01
          0                 2           2             1    1     1       0.3316369220E-02       4    3    1         0.1013044958E-03      0.1535350299E-02
          0                 3           2             1    1     1      -0.2749435450E-03       4    3    1        -0.9118078761E-05      0.1425118558E-03
          0                 4           1             1    1     1       0.2031086923E-04       6    4    1        -0.8491582175E-06      0.1223217148E-04
          0                 5           1             1    1     1      -0.1308603895E-05       6    4    1         0.8482607861E-07      0.9259812607E-06
          0                 6           1             1    1     1       0.7298002655E-07       4    4    1        -0.6467384850E-08      0.6021574750E-07

    ------------------------------------------------
       NWT REQUIRED            6 OUTER ITERATIONS 
       AND A TOTAL OF          9 INNER ITERATIONS.
    ------------------------------------------------

 NO OUTPUT CONTROL FOR STRESS PERIOD   47   TIME STEP   22
 
 WELLS WITH REDUCED PUMPING FOR STRESS PERIOD    47 TIME STEP    22
   LAY   ROW   COL         APPL.Q          ACT.Q        GW-HEAD       CELL-BOT
     1     3    50  -0.105999E+01  -0.297189E+00   0.390866E+01   0.000000E+00
     1     5    55  -0.105999E+01  -0.232682E+00   0.336086E+01   0.000000E+00
 
 
 SOLVING FOR HEAD 
                                                   Max.-Head-Change                         Max.-Flux-Residual
  Residual-Control   Outer-Iter.   Inner-Iter.     Column Row Layer    Maximum-Head-Change  Column Row Layer    Maximum-Flux-Residual          L2-NORM 
          0                 1           2             1    1     1      -0.3971602317E-01       1    5    1        -0.1025200427E-02      0.1595967474E-01
          0                 2           2             1    1     1       0.3649561259E-02       1    5    1         0.1025126583E-03      0.1544104001E-02
          0                 3           2             1    1     1      -0.3019647607E-03       1    3    1        -0.9226673022E-05      0.1434978152E-03
          0                 4           1             1    1     1       0.2224300091E-04       1    4    1        -0.8848151367E-06      0.1233691122E-04
          0                 5           1             1    1     1      -0.1422982094E-05       2    4    1         0.8798300755E-07      0.9338459076E-06
          0                 6           1             1    1     1       0.7875141980E-07       2    4    1        -0.6687596255E-08      0.6076014138E-07

    ------------------------------------------------
       NWT REQUIRED            6 OUTER ITERATIONS 
       AND A TOTAL OF          9 INNER ITERATIONS.
    ------------------------------------------------

 NO OUTPUT CONTROL FOR STRESS PERIOD   47   TIME STEP   23
 
 WELLS WITH REDUCED PUMPING FOR STRESS PERIOD    47 TIME STEP    23
   LAY   ROW   COL         APPL.Q          ACT.Q        GW-HEAD       CELL-BOT
     1     3    50  -0.106002E+01  -0.297083E+00   0.390778E+01   0.000000E+00
     1     5    55  -0.106002E+01  -0.232611E+00   0.336023E+01   0.000000E+00
 
 
 SOLVING FOR HEAD 
                                                   Max.-Head-Change                         Max.-Flux-Residual
  Residual-Control   Outer-Iter.   Inner-Iter.     Column Row Layer    Maximum-Head-Change  Column Row Layer    Maximum-Flux-Residual          L2-NORM 
          0                 1           2             1    1     1      -0.4365521263E-01       1    5    1        -0.1021645536E-02      0.1600040333E-01
          0                 2           2             1    1     1       0.4003490536E-02       1    3    1         0.1021575393E-03      0.1548913944E-02
          0                 3           2             1    1     1      -0.3303768381E-03       1    5    1        -0.9194754533E-05      0.1439950297E-03
          0                 4           1             1    1     1       0.2424725232E-04       1    4    1        -0.8948433212E-06      0.1239493143E-04
          0                 5           1             1    1     1      -0.1537034482E-05       2    4    1         0.8914240723E-07      0.9373857306E-06
          0                 6           1             1    1     1       0.8423154157E-07       2    4    1        -0.6783675843E-08      0.6098331204E-07

    ------------------------------------------------
       NWT REQUIRED            6 OUTER ITERATIONS 
       AND A TOTAL OF          9 INNER ITERATIONS.
    ------------------------------------------------

 NO OUTPUT CONTROL FOR STRESS PERIOD   47   TIME STEP   24
 
 WELLS WITH REDUCED PUMPING FOR STRESS PERIOD    47 TIME STEP    24
   LAY   ROW   COL         APPL.Q          ACT.Q        GW-HEAD       CELL-BOT
     1     3    50  -0.106000E+01  -0.296914E+00   0.390652E+01   0.000000E+00
     1     5    55  -0.106000E+01  -0.232493E+00   0.335930E+01   0.000000E+00
 
 
 SOLVING FOR HEAD 
                                                   Max.-Head-Change                         Max.-Flux-Residual
  Residual-Control   Outer-Iter.   Inner-Iter.     Column Row Layer    Maximum-Head-Change  Column Row Layer    Maximum-Flux-Residual          L2-NORM 
          0                 1           2             1    1     1      -0.4795668906E-01       1    5    1        -0.1019789646E-02      0.1603317837E-01
          0                 2           2             1    1     1       0.4389204739E-02       1    3    1         0.1019716432E-03      0.1552251230E-02
          0                 3           2             1    1     1      -0.3612577326E-03       1    5    1        -0.9178077894E-05      0.1443186812E-03
          0                 4           1             1    1     1       0.2641446562E-04       1    4    1        -0.9018897451E-06      0.1243638048E-04
          0                 5           1             1    1     1      -0.1656211960E-05       2    4    1         0.9009265867E-07      0.9387632065E-06
          0                 6           1             1    1     1       0.8971478484E-07       2    4    1        -0.6861530011E-08      0.6101370836E-07

    ------------------------------------------------
       NWT REQUIRED            6 OUTER ITERATIONS 
       AND A TOTAL OF          9 INNER ITERATIONS.
    ------------------------------------------------

 NO OUTPUT CONTROL FOR STRESS PERIOD   47   TIME STEP   25
 
 WELLS WITH REDUCED PUMPING FOR STRESS PERIOD    47 TIME STEP    25
   LAY   ROW   COL         APPL.Q          ACT.Q        GW-HEAD       CELL-BOT
     1     3    50  -0.106001E+01  -0.296698E+00   0.390481E+01   0.000000E+00
     1     5    55  -0.106001E+01  -0.232340E+00   0.335800E+01   0.000000E+00
 
 
 SOLVING FOR HEAD 
                                                   Max.-Head-Change                         Max.-Flux-Residual
  Residual-Control   Outer-Iter.   Inner-Iter.     Column Row Layer    Maximum-Head-Change  Column Row Layer    Maximum-Flux-Residual          L2-NORM 
          0                 1           3             1    1     1      -0.5267346416E-01       1    5    1        -0.1018374304E-02      0.1606107738E-01
          0                 2           2             1    1     1       0.4811924283E-02       1    2    1         0.1018304753E-03      0.1555307824E-02
          0                 3           2             1    1     1      -0.3950537218E-03       1    5    1        -0.9165347423E-05      0.1446331634E-03
          0                 4           1             1    1     1       0.2877808644E-04       1    4    1        -0.9080564496E-06      0.1247688870E-04
          0                 5           1             1    1     1      -0.1782350882E-05       2    4    1         0.9095375475E-07      0.9390173190E-06
          0                 6           1             1    1     1       0.9530784861E-07       2    4    1        -0.6929738561E-08      0.6091156632E-07

    ------------------------------------------------
       NWT REQUIRED            6 OUTER ITERATIONS 
       AND A TOTAL OF         10 INNER ITERATIONS.
    ------------------------------------------------

 NO OUTPUT CONTROL FOR STRESS PERIOD   47   TIME STEP   26
 
 WELLS WITH REDUCED PUMPING FOR STRESS PERIOD    47 TIME STEP    26
   LAY   ROW   COL         APPL.Q          ACT.Q        GW-HEAD       CELL-BOT
     1     3    50  -0.106001E+01  -0.296407E+00   0.390257E+01   0.000000E+00
     1     5    55  -0.106001E+01  -0.232130E+00   0.335627E+01   0.000000E+00
 
 
 SOLVING FOR HEAD 
                                                   Max.-Head-Change                         Max.-Flux-Residual
  Residual-Control   Outer-Iter.   Inner-Iter.     Column Row Layer    Maximum-Head-Change  Column Row Layer    Maximum-Flux-Residual          L2-NORM 
          0                 1           3             1    1     1      -0.5784814008E-01       1    7    1        -0.1016992067E-02      0.1608166346E-01
          0                 2           2             1    1     1       0.5275277162E-02       1    7    1         0.1016928477E-03      0.1557754129E-02
          0                 3           2             1    1     1      -0.4320557092E-03       1    7    1        -0.9152969415E-05      0.1448883336E-03
          0                 4           1             1    1     1       0.3135417565E-04       1    4    1        -0.9136388073E-06      0.1251094602E-04
          0                 5           1             1    1     1      -0.1911831488E-05       2    4    1         0.9172000759E-07      0.9377647361E-06
          0                 6           1             1    1     1       0.1006261745E-06       2    4    1        -0.6979941958E-08      0.6066809952E-07

    ------------------------------------------------
       NWT REQUIRED            6 OUTER ITERATIONS 
       AND A TOTAL OF         10 INNER ITERATIONS.
    ------------------------------------------------

 NO OUTPUT CONTROL FOR STRESS PERIOD   47   TIME STEP   27
 
 WELLS WITH REDUCED PUMPING FOR STRESS PERIOD    47 TIME STEP    27
   LAY   ROW   COL         APPL.Q          ACT.Q        GW-HEAD       CELL-BOT
     1     3    50  -0.106000E+01  -0.296074E+00   0.389999E+01   0.000000E+00
     1     5    55  -0.106000E+01  -0.231895E+00   0.335434E+01   0.000000E+00
 
 
 SOLVING FOR HEAD 
                                                   Max.-Head-Change                         Max.-Flux-Residual
  Residual-Control   Outer-Iter.   Inner-Iter.     Column Row Layer    Maximum-Head-Change  Column Row Layer    Maximum-Flux-Residual          L2-NORM 
          0                 1           3             1    1     1      -0.6352442259E-01       1    7    1        -0.1015514499E-02      0.1610916676E-01
          0                 2           2             1    1     1       0.5783269767E-02       1    7    1         0.1015443101E-03      0.1560734478E-02
          0                 3           2             1    1     1      -0.4725794991E-03       1    7    1        -0.9139673038E-05      0.1451848967E-03
          0                 4           1             1    1     1       0.3416255133E-04       1    4    1        -0.9186484284E-06      0.1254713582E-04
          0                 5           1             1    1     1      -0.2043710513E-05       2    4    1         0.9239950316E-07      0.9349277151E-06
          0                 6           1             1    1     1       0.1055517572E-06       2    4    1        -0.7015380277E-08      0.6024380216E-07

    ------------------------------------------------
       NWT REQUIRED            6 OUTER ITERATIONS 
       AND A TOTAL OF         10 INNER ITERATIONS.
    ------------------------------------------------

 NO OUTPUT CONTROL FOR STRESS PERIOD   47   TIME STEP   28
 
 WELLS WITH REDUCED PUMPING FOR STRESS PERIOD    47 TIME STEP    28
   LAY   ROW   COL         APPL.Q          ACT.Q        GW-HEAD       CELL-BOT
     1     3    50  -0.105998E+01  -0.295622E+00   0.389653E+01   0.000000E+00
     1     5    55  -0.105998E+01  -0.231575E+00   0.335173E+01   0.000000E+00
 
 
 SOLVING FOR HEAD 
                                                   Max.-Head-Change                         Max.-Flux-Residual
  Residual-Control   Outer-Iter.   Inner-Iter.     Column Row Layer    Maximum-Head-Change  Column Row Layer    Maximum-Flux-Residual          L2-NORM 
          0                 1           3             1    1     1      -0.6977858766E-01       1    7    1        -0.1013921583E-02      0.1609538636E-01
          0                 2           2             1    1     1       0.6345504372E-02       1    7    1         0.1013845397E-03      0.1560718003E-02
          0                 3           2             1    1     1      -0.5176090638E-03       1    7    1        -0.9125367161E-05      0.1452619971E-03
          0                 4           1             1    1     1       0.3728318568E-04       1    4    1        -0.9159964272E-06      0.1256600688E-04
          0                 5           1             1    1     1      -0.2179307070E-05       9    4    1         0.9267705536E-07      0.9291668819E-06
          0                 6           1             1    1     1       0.1100573696E-06       2    4    1        -0.6999647084E-08      0.5958006568E-07

    ------------------------------------------------
       NWT REQUIRED            6 OUTER ITERATIONS 
       AND A TOTAL OF         10 INNER ITERATIONS.
    ------------------------------------------------

 NO OUTPUT CONTROL FOR STRESS PERIOD   47   TIME STEP   29
 
 WELLS WITH REDUCED PUMPING FOR STRESS PERIOD    47 TIME STEP    29
   LAY   ROW   COL         APPL.Q          ACT.Q        GW-HEAD       CELL-BOT
     1     3    50  -0.106001E+01  -0.295145E+00   0.389276E+01   0.000000E+00
     1     5    55  -0.106001E+01  -0.231234E+00   0.334885E+01   0.000000E+00
 
 
 SOLVING FOR HEAD 
                                                   Max.-Head-Change                         Max.-Flux-Residual
  Residual-Control   Outer-Iter.   Inner-Iter.     Column Row Layer    Maximum-Head-Change  Column Row Layer    Maximum-Flux-Residual          L2-NORM 
          0                 1           3             1    1     1      -0.7666072008E-01       1    5    1        -0.1012685418E-02      0.1606255948E-01
          0                 2           2             1    1     1       0.6961190972E-02       1    5    1         0.1012580665E-03      0.1558342601E-02
          0                 3           2             1    1     1      -0.5666518173E-03       1    5    1        -0.9114223154E-05      0.1451273865E-03
          0                 4           1             1    1     1       0.4064651562E-04       1    4    1        -0.9190356316E-06      0.1256868761E-04
          0                 5           1             1    1     1      -0.2307592860E-05       9    4    1         0.9376666732E-07      0.9205371211E-06
          0                 6           1             1    1     1       0.1134259897E-06       2    4    1        -0.7000263480E-08      0.5870196176E-07

    ------------------------------------------------
       NWT REQUIRED            6 OUTER ITERATIONS 
       AND A TOTAL OF         10 INNER ITERATIONS.
    ------------------------------------------------

 NO OUTPUT CONTROL FOR STRESS PERIOD   47   TIME STEP   30
 
 WELLS WITH REDUCED PUMPING FOR STRESS PERIOD    47 TIME STEP    30
   LAY   ROW   COL         APPL.Q          ACT.Q        GW-HEAD       CELL-BOT
     1     3    50  -0.105980E+01  -0.294545E+00   0.388856E+01   0.000000E+00
     1     5    55  -0.105980E+01  -0.230802E+00   0.334565E+01   0.000000E+00
 



 STREAM LISTING     PERIOD     47   STEP       30

 LAYER ROW COL. STREAM  RCH.   FLOW INTO    STREAM     FLOW OUT OF   OVRLND.    DIRECT     STREAM      STREAM      STREAM     STREAM  STREAMBED   FLOW TO   CHNG. UNSAT. 
                SEG.NO.  NO.   STRM. RCH.    LOSS       STRM. RCH.   RUNOFF     PRECIP       ET         HEAD        DEPTH      WIDTH  CONDCTNC.   WAT. TAB.

   1    4    1     1     1    2.1000E+00  9.2186E-04   2.0991E+00  0.000E+00  0.000E+00  0.000E+00  1.40926E+02  1.076E+00  3.100E+00  5.848E-04  5.094E-04  4.125E-04
   1    4    2     1     2    2.0991E+00  9.2159E-04   2.0982E+00  0.000E+00  0.000E+00  0.000E+00  1.40626E+02  1.076E+00  3.100E+00  5.848E-04  5.090E-04  4.126E-04
   1    4    3     1     3    2.0982E+00  9.2133E-04   2.0972E+00  0.000E+00  0.000E+00  0.000E+00  1.40326E+02  1.076E+00  3.100E+00  5.847E-04  5.085E-04  4.128E-04
   1    4    4     1     4    2.0972E+00  9.2106E-04   2.0963E+00  0.000E+00  0.000E+00  0.000E+00  1.40026E+02  1.076E+00  3.099E+00  5.846E-04  5.082E-04  4.129E-04
   1    4    5     1     5    2.0963E+00  9.2079E-04   2.0954E+00  0.000E+00  0.000E+00  0.000E+00  1.39725E+02  1.075E+00  3.099E+00  5.845E-04  5.078E-04  4.130E-04
   1    4    6     1     6    2.0954E+00  9.2052E-04   2.0945E+00  0.000E+00  0.000E+00  0.000E+00  1.39425E+02  1.075E+00  3.099E+00  5.844E-04  5.075E-04  4.131E-04
   1    4    7     1     7    2.0945E+00  9.2026E-04   2.0936E+00  0.000E+00  0.000E+00  0.000E+00  1.39125E+02  1.075E+00  3.098E+00  5.844E-04  5.071E-04  4.131E-04
   1    4    8     1     8    2.0936E+00  9.1999E-04   2.0926E+00  0.000E+00  0.000E+00  0.000E+00  1.38825E+02  1.075E+00  3.098E+00  5.843E-04  5.068E-04  4.131E-04
   1    4    9     1     9    2.0926E+00  9.1972E-04   2.0917E+00  0.000E+00  0.000E+00  0.000E+00  1.38524E+02  1.074E+00  3.098E+00  5.842E-04  5.066E-04  4.131E-04
   1    4   10     1    10    2.0917E+00  9.1946E-04   2.0908E+00  0.000E+00  0.000E+00  0.000E+00  1.38224E+02  1.074E+00  3.098E+00  5.841E-04  5.063E-04  4.131E-04
   1    4   11     1    11    2.0908E+00  9.1919E-04   2.0899E+00  0.000E+00  0.000E+00  0.000E+00  1.37924E+02  1.074E+00  3.097E+00  5.840E-04  5.069E-04  4.123E-04
   1    4   12     1    12    2.0899E+00  9.1892E-04   2.0890E+00  0.000E+00  0.000E+00  0.000E+00  1.37624E+02  1.074E+00  3.097E+00  5.840E-04  5.079E-04  4.110E-04
   1    4   13     1    13    2.0890E+00  9.1866E-04   2.0880E+00  0.000E+00  0.000E+00  0.000E+00  1.37323E+02  1.073E+00  3.097E+00  5.839E-04  5.092E-04  4.095E-04
   1    4   14     1    14    2.0880E+00  9.1839E-04   2.0871E+00  0.000E+00  0.000E+00  0.000E+00  1.37023E+02  1.073E+00  3.096E+00  5.838E-04  5.106E-04  4.078E-04
   1    4   15     1    15    2.0871E+00  9.1813E-04   2.0862E+00  0.000E+00  0.000E+00  0.000E+00  1.36723E+02  1.073E+00  3.096E+00  5.837E-04  5.122E-04  4.059E-04
   1    4   16     1    16    2.0862E+00  9.1786E-04   2.0853E+00  0.000E+00  0.000E+00  0.000E+00  1.36423E+02  1.073E+00  3.096E+00  5.836E-04  5.132E-04  4.047E-04
   1    4   17     1    17    2.0853E+00  9.1759E-04   2.0844E+00  0.000E+00  0.000E+00  0.000E+00  1.36122E+02  1.072E+00  3.096E+00  5.836E-04  5.131E-04  4.045E-04
   1    4   18     1    18    2.0844E+00  9.1733E-04   2.0834E+00  0.000E+00  0.000E+00  0.000E+00  1.35822E+02  1.072E+00  3.095E+00  5.835E-04  5.130E-04  4.044E-04
   1    4   19     1    19    2.0834E+00  9.1706E-04   2.0825E+00  0.000E+00  0.000E+00  0.000E+00  1.35522E+02  1.072E+00  3.095E+00  5.834E-04  5.129E-04  4.043E-04
   1    4   20     1    20    2.0825E+00  9.1679E-04   2.0816E+00  0.000E+00  0.000E+00  0.000E+00  1.35222E+02  1.072E+00  3.095E+00  5.833E-04  5.129E-04  4.041E-04
   1    4   21     1    21    2.0816E+00  9.1653E-04   2.0807E+00  0.000E+00  0.000E+00  0.000E+00  1.34921E+02  1.071E+00  3.094E+00  5.833E-04  5.129E-04  4.039E-04
   1    4   22     1    22    2.0807E+00  9.1626E-04   2.0798E+00  0.000E+00  0.000E+00  0.000E+00  1.34621E+02  1.071E+00  3.094E+00  5.832E-04  5.129E-04  4.036E-04
   1    4   23     1    23    2.0798E+00  9.1600E-04   2.0789E+00  0.000E+00  0.000E+00  0.000E+00  1.34321E+02  1.071E+00  3.094E+00  5.831E-04  5.129E-04  4.033E-04
   1    4   24     1    24    2.0789E+00  9.1573E-04   2.0779E+00  0.000E+00  0.000E+00  0.000E+00  1.34021E+02  1.071E+00  3.094E+00  5.830E-04  5.130E-04  4.030E-04
   1    4   25     1    25    2.0779E+00  9.1547E-04   2.0770E+00  0.000E+00  0.000E+00  0.000E+00  1.33720E+02  1.070E+00  3.093E+00  5.829E-04  5.131E-04  4.026E-04
   1    4   26     1    26    2.0770E+00  9.1520E-04   2.0761E+00  0.000E+00  0.000E+00  0.000E+00  1.33420E+02  1.070E+00  3.093E+00  5.829E-04  5.132E-04  4.022E-04
   1    4   27     1    27    2.0761E+00  9.1493E-04   2.0752E+00  0.000E+00  0.000E+00  0.000E+00  1.33120E+02  1.070E+00  3.093E+00  5.828E-04  5.134E-04  4.018E-04
   1    4   28     1    28    2.0752E+00  9.1467E-04   2.0743E+00  0.000E+00  0.000E+00  0.000E+00  1.32820E+02  1.070E+00  3.092E+00  5.827E-04  5.135E-04  4.014E-04
   1    4   29     1    29    2.0743E+00  9.1440E-04   2.0734E+00  0.000E+00  0.000E+00  0.000E+00  1.32519E+02  1.069E+00  3.092E+00  5.826E-04  5.137E-04  4.009E-04
   1    4   30     1    30    2.0734E+00  9.1414E-04   2.0725E+00  0.000E+00  0.000E+00  0.000E+00  1.32219E+02  1.069E+00  3.092E+00  5.825E-04  5.139E-04  4.005E-04
   1    4   31     1    31    2.0725E+00  9.1387E-04   2.0715E+00  0.000E+00  0.000E+00  0.000E+00  1.31919E+02  1.069E+00  3.091E+00  5.825E-04  5.141E-04  4.000E-04
   1    4   32     1    32    2.0715E+00  9.1361E-04   2.0706E+00  0.000E+00  0.000E+00  0.000E+00  1.31619E+02  1.069E+00  3.091E+00  5.824E-04  5.144E-04  3.995E-04
   1    4   33     1    33    2.0706E+00  9.1334E-04   2.0697E+00  0.000E+00  0.000E+00  0.000E+00  1.31319E+02  1.069E+00  3.091E+00  5.823E-04  5.147E-04  3.989E-04
   1    4   34     1    34    2.0697E+00  9.1308E-04   2.0688E+00  0.000E+00  0.000E+00  0.000E+00  1.31018E+02  1.068E+00  3.091E+00  5.822E-04  5.150E-04  3.984E-04
   1    4   35     1    35    2.0688E+00  9.1281E-04   2.0679E+00  0.000E+00  0.000E+00  0.000E+00  1.30718E+02  1.068E+00  3.090E+00  5.821E-04  5.153E-04  3.978E-04
   1    4   36     1    36    2.0679E+00  9.1255E-04   2.0670E+00  0.000E+00  0.000E+00  0.000E+00  1.30418E+02  1.068E+00  3.090E+00  5.821E-04  5.156E-04  3.972E-04
   1    4   37     1    37    2.0670E+00  9.1228E-04   2.0661E+00  0.000E+00  0.000E+00  0.000E+00  1.30118E+02  1.068E+00  3.090E+00  5.820E-04  5.159E-04  3.966E-04
   1    4   38     1    38    2.0661E+00  9.1202E-04   2.0652E+00  0.000E+00  0.000E+00  0.000E+00  1.29817E+02  1.067E+00  3.089E+00  5.819E-04  5.162E-04  3.960E-04
   1    4   39     1    39    2.0652E+00  9.1175E-04   2.0642E+00  0.000E+00  0.000E+00  0.000E+00  1.29517E+02  1.067E+00  3.089E+00  5.818E-04  5.267E-04  3.853E-04
   1    4   40     1    40    2.0642E+00  9.1149E-04   2.0633E+00  0.000E+00  0.000E+00  0.000E+00  1.29217E+02  1.067E+00  3.089E+00  5.817E-04  5.804E-04  3.314E-04
   1    4   41     1    41    2.0633E+00  9.1122E-04   2.0624E+00  0.000E+00  0.000E+00  0.000E+00  1.28917E+02  1.067E+00  3.089E+00  5.817E-04  6.294E-04  2.820E-04
   1    4   42     1    42    2.0624E+00  9.1096E-04   2.0615E+00  0.000E+00  0.000E+00  0.000E+00  1.28616E+02  1.066E+00  3.088E+00  5.816E-04  6.306E-04  2.806E-04
   1    4   43     1    43    2.0615E+00  9.1069E-04   2.0606E+00  0.000E+00  0.000E+00  0.000E+00  1.28316E+02  1.066E+00  3.088E+00  5.815E-04  6.317E-04  2.792E-04
   1    4   44     1    44    2.0606E+00  9.1043E-04   2.0597E+00  0.000E+00  0.000E+00  0.000E+00  1.28016E+02  1.066E+00  3.088E+00  5.814E-04  6.656E-04  2.450E-04
   1    4   45     1    45    2.0597E+00  9.1017E-04   2.0588E+00  0.000E+00  0.000E+00  0.000E+00  1.27716E+02  1.066E+00  3.087E+00  5.814E-04  6.992E-04  2.112E-04
   1    4   46     1    46    2.0588E+00  9.0990E-04   2.0579E+00  0.000E+00  0.000E+00  0.000E+00  1.27415E+02  1.065E+00  3.087E+00  5.813E-04  7.826E-04  1.276E-04
   1    4   47     1    47    2.0579E+00  9.0964E-04   2.0570E+00  0.000E+00  0.000E+00  0.000E+00  1.27115E+02  1.065E+00  3.087E+00  5.812E-04  7.977E-04  1.121E-04
   1    4   48     1    48    2.0570E+00  9.0937E-04   2.0561E+00  0.000E+00  0.000E+00  0.000E+00  1.26815E+02  1.065E+00  3.087E+00  5.811E-04  8.692E-04  4.044E-05
   1    4   49     1    49    2.0561E+00  9.0911E-04   2.0551E+00  0.000E+00  0.000E+00  0.000E+00  1.26515E+02  1.065E+00  3.086E+00  5.810E-04  8.585E-04  5.079E-05
   1    4   50     1    50    2.0551E+00  9.0884E-04   2.0542E+00  0.000E+00  0.000E+00  0.000E+00  1.26214E+02  1.064E+00  3.086E+00  5.810E-04  8.699E-04  3.920E-05
   1    4   51     1    51    2.0542E+00  9.0858E-04   2.0533E+00  0.000E+00  0.000E+00  0.000E+00  1.25914E+02  1.064E+00  3.086E+00  5.809E-04  8.672E-04  4.159E-05
   1    4   52     1    52    2.0533E+00  9.0832E-04   2.0524E+00  0.000E+00  0.000E+00  0.000E+00  1.25614E+02  1.064E+00  3.085E+00  5.808E-04  8.662E-04  4.236E-05
   1    4   53     1    53    2.0524E+00  9.0805E-04   2.0515E+00  0.000E+00  0.000E+00  0.000E+00  1.25314E+02  1.064E+00  3.085E+00  5.807E-04  8.656E-04  4.268E-05
   1    4   54     1    54    2.0515E+00  9.0779E-04   2.0506E+00  0.000E+00  0.000E+00  0.000E+00  1.25013E+02  1.063E+00  3.085E+00  5.806E-04  8.658E-04  4.219E-05
   1    4   55     1    55    2.0506E+00  9.0752E-04   2.0497E+00  0.000E+00  0.000E+00  0.000E+00  1.24713E+02  1.063E+00  3.085E+00  5.806E-04  8.671E-04  4.065E-05
   1    4   56     1    56    2.0497E+00  9.0726E-04   2.0488E+00  0.000E+00  0.000E+00  0.000E+00  1.24413E+02  1.063E+00  3.084E+00  5.805E-04  8.538E-04  5.367E-05
   1    4   57     1    57    2.0488E+00  9.0700E-04   2.0479E+00  0.000E+00  0.000E+00  0.000E+00  1.24113E+02  1.063E+00  3.084E+00  5.804E-04  8.862E-04  2.106E-05
   1    4   58     1    58    2.0479E+00  9.0673E-04   2.0470E+00  0.000E+00  0.000E+00  0.000E+00  1.23812E+02  1.062E+00  3.084E+00  5.803E-04  7.979E-04  1.091E-04
   1    4   59     1    59    2.0470E+00  9.0647E-04   2.0461E+00  0.000E+00  0.000E+00  0.000E+00  1.23512E+02  1.062E+00  3.083E+00  5.802E-04  7.952E-04  1.115E-04
   1    4   60     1    60    2.0461E+00  9.0621E-04   2.0452E+00  0.000E+00  0.000E+00  0.000E+00  1.23212E+02  1.062E+00  3.083E+00  5.802E-04  7.169E-04  1.895E-04
   1    4   61     1    61    2.0452E+00  9.0594E-04   2.0443E+00  0.000E+00  0.000E+00  0.000E+00  1.22912E+02  1.062E+00  3.083E+00  5.801E-04  6.738E-04  2.324E-04
   1    4   62     1    62    2.0443E+00  9.0568E-04   2.0433E+00  0.000E+00  0.000E+00  0.000E+00  1.22611E+02  1.061E+00  3.082E+00  5.800E-04  6.726E-04  2.333E-04
   1    4   63     1    63    2.0433E+00  9.0542E-04   2.0424E+00  0.000E+00  0.000E+00  0.000E+00  1.22311E+02  1.061E+00  3.082E+00  5.799E-04  6.655E-04  2.401E-04
   1    4   64     1    64    2.0424E+00  9.0515E-04   2.0415E+00  0.000E+00  0.000E+00  0.000E+00  1.22011E+02  1.061E+00  3.082E+00  5.799E-04  6.315E-04  2.739E-04
   1    4   65     1    65    2.0415E+00  9.0489E-04   2.0406E+00  0.000E+00  0.000E+00  0.000E+00  1.21711E+02  1.061E+00  3.082E+00  5.798E-04  5.748E-04  3.303E-04
   1    4   66     1    66    2.0406E+00  9.0463E-04   2.0397E+00  0.000E+00  0.000E+00  0.000E+00  1.21411E+02  1.061E+00  3.081E+00  5.797E-04  5.190E-04  3.858E-04
   1    4   67     1    67    2.0397E+00  9.0436E-04   2.0388E+00  0.000E+00  0.000E+00  0.000E+00  1.21110E+02  1.060E+00  3.081E+00  5.796E-04  5.187E-04  3.859E-04
   1    4   68     1    68    2.0388E+00  9.0410E-04   2.0379E+00  0.000E+00  0.000E+00  0.000E+00  1.20810E+02  1.060E+00  3.081E+00  5.795E-04  5.184E-04  3.859E-04
   1    4   69     1    69    2.0379E+00  9.0384E-04   2.0370E+00  0.000E+00  0.000E+00  0.000E+00  1.20510E+02  1.060E+00  3.080E+00  5.795E-04  5.179E-04  3.861E-04
   1    4   70     1    70    2.0370E+00  9.0357E-04   2.0361E+00  0.000E+00  0.000E+00  0.000E+00  1.20210E+02  1.060E+00  3.080E+00  5.794E-04  5.175E-04  3.863E-04
   1    4   71     1    71    2.0361E+00  9.0331E-04   2.0352E+00  0.000E+00  0.000E+00  0.000E+00  1.19909E+02  1.059E+00  3.080E+00  5.793E-04  5.171E-04  3.864E-04
   1    4   72     1    72    2.0352E+00  9.0305E-04   2.0343E+00  0.000E+00  0.000E+00  0.000E+00  1.19609E+02  1.059E+00  3.080E+00  5.792E-04  5.167E-04  3.866E-04
   1    4   73     1    73    2.0343E+00  9.0279E-04   2.0334E+00  0.000E+00  0.000E+00  0.000E+00  1.19309E+02  1.059E+00  3.079E+00  5.791E-04  5.163E-04  3.867E-04
   1    4   74     1    74    2.0334E+00  9.0252E-04   2.0325E+00  0.000E+00  0.000E+00  0.000E+00  1.19009E+02  1.059E+00  3.079E+00  5.791E-04  5.159E-04  3.868E-04
   1    4   75     1    75    2.0325E+00  9.0226E-04   2.0316E+00  0.000E+00  0.000E+00  0.000E+00  1.18708E+02  1.058E+00  3.079E+00  5.790E-04  5.156E-04  3.869E-04
   1    4   76     1    76    2.0316E+00  9.0200E-04   2.0307E+00  0.000E+00  0.000E+00  0.000E+00  1.18408E+02  1.058E+00  3.078E+00  5.789E-04  5.153E-04  3.869E-04
   1    4   77     1    77    2.0307E+00  9.0174E-04   2.0298E+00  0.000E+00  0.000E+00  0.000E+00  1.18108E+02  1.058E+00  3.078E+00  5.788E-04  5.150E-04  3.869E-04
   1    4   78     1    78    2.0298E+00  9.0147E-04   2.0289E+00  0.000E+00  0.000E+00  0.000E+00  1.17808E+02  1.058E+00  3.078E+00  5.787E-04  5.148E-04  3.869E-04
   1    4   79     1    79    2.0289E+00  9.0121E-04   2.0280E+00  0.000E+00  0.000E+00  0.000E+00  1.17507E+02  1.057E+00  3.078E+00  5.787E-04  5.145E-04  3.869E-04
   1    4   80     1    80    2.0280E+00  9.0095E-04   2.0271E+00  0.000E+00  0.000E+00  0.000E+00  1.17207E+02  1.057E+00  3.077E+00  5.786E-04  5.144E-04  3.868E-04
   1    4   81     1    81    2.0271E+00  9.0069E-04   2.0262E+00  0.000E+00  0.000E+00  0.000E+00  1.16907E+02  1.057E+00  3.077E+00  5.785E-04  5.143E-04  3.866E-04
   1    4   82     1    82    2.0262E+00  9.0042E-04   2.0253E+00  0.000E+00  0.000E+00  0.000E+00  1.16607E+02  1.057E+00  3.077E+00  5.784E-04  5.142E-04  3.864E-04
   1    4   83     1    83    2.0253E+00  9.0016E-04   2.0244E+00  0.000E+00  0.000E+00  0.000E+00  1.16306E+02  1.056E+00  3.076E+00  5.784E-04  5.144E-04  3.860E-04
   1    4   84     1    84    2.0244E+00  8.9990E-04   2.0235E+00  0.000E+00  0.000E+00  0.000E+00  1.16006E+02  1.056E+00  3.076E+00  5.783E-04  5.215E-04  3.786E-04
   1    4   85     1    85    2.0235E+00  8.9964E-04   2.0226E+00  0.000E+00  0.000E+00  0.000E+00  1.15706E+02  1.056E+00  3.076E+00  5.782E-04  6.030E-04  2.968E-04
   1    4   86     1    86    2.0226E+00  8.9938E-04   2.0217E+00  0.000E+00  0.000E+00  0.000E+00  1.15406E+02  1.056E+00  3.076E+00  5.781E-04  7.036E-04  1.959E-04
   1    4   87     1    87    2.0217E+00  8.9912E-04   2.0208E+00  0.000E+00  0.000E+00  0.000E+00  1.15105E+02  1.055E+00  3.075E+00  5.780E-04  8.106E-04  8.867E-05
   1    4   88     1    88    2.0208E+00  8.9885E-04   2.0199E+00  0.000E+00  0.000E+00  0.000E+00  1.14805E+02  1.055E+00  3.075E+00  5.780E-04  9.151E-04 -1.607E-05
   1    4   89     1    89    2.0199E+00  8.9859E-04   2.0190E+00  0.000E+00  0.000E+00  0.000E+00  1.14505E+02  1.055E+00  3.075E+00  5.779E-04  9.520E-04 -5.340E-05
   1    4   90     1    90    2.0190E+00  8.9833E-04   2.0181E+00  0.000E+00  0.000E+00  0.000E+00  1.14205E+02  1.055E+00  3.074E+00  5.778E-04  9.522E-04 -5.392E-05
   1    4   91     1    91    2.0181E+00  8.9807E-04   2.0172E+00  0.000E+00  0.000E+00  0.000E+00  1.13904E+02  1.054E+00  3.074E+00  5.777E-04  9.499E-04 -5.186E-05
   1    4   92     1    92    2.0172E+00  8.9781E-04   2.0163E+00  0.000E+00  0.000E+00  0.000E+00  1.13604E+02  1.054E+00  3.074E+00  5.776E-04  9.477E-04 -4.990E-05
   1    4   93     1    93    2.0163E+00  8.9755E-04   2.0154E+00  0.000E+00  0.000E+00  0.000E+00  1.13304E+02  1.054E+00  3.074E+00  5.776E-04  9.483E-04 -5.077E-05
   1    4   94     1    94    2.0154E+00  8.9728E-04   2.0145E+00  0.000E+00  0.000E+00  0.000E+00  1.13004E+02  1.054E+00  3.073E+00  5.775E-04  9.492E-04 -5.188E-05
   1    4   95     1    95    2.0145E+00  8.9702E-04   2.0136E+00  0.000E+00  0.000E+00  0.000E+00  1.12704E+02  1.054E+00  3.073E+00  5.774E-04  9.500E-04 -5.300E-05
   1    4   96     1    96    2.0136E+00  8.9676E-04   2.0127E+00  0.000E+00  0.000E+00  0.000E+00  1.12403E+02  1.053E+00  3.073E+00  5.773E-04  9.508E-04 -5.406E-05
   1    4   97     1    97    2.0127E+00  8.9650E-04   2.0118E+00  0.000E+00  0.000E+00  0.000E+00  1.12103E+02  1.053E+00  3.072E+00  5.773E-04  9.508E-04 -5.431E-05
   1    4   98     1    98    2.0118E+00  8.9624E-04   2.0109E+00  0.000E+00  0.000E+00  0.000E+00  1.11803E+02  1.053E+00  3.072E+00  5.772E-04  9.474E-04 -5.118E-05
   1    4   99     1    99    2.0109E+00  8.9598E-04   2.0100E+00  0.000E+00  0.000E+00  0.000E+00  1.11503E+02  1.053E+00  3.072E+00  5.771E-04  9.456E-04 -4.966E-05
   1    4  100     1   100    2.0100E+00  8.9572E-04   2.0091E+00  0.000E+00  0.000E+00  0.000E+00  1.11202E+02  1.052E+00  3.072E+00  5.770E-04  9.460E-04 -5.027E-05



1
  VOLUMETRIC BUDGET FOR UNSATURATED ZONE BENEATH STREAMS AT END OF TIME STEP    30 STRESS PERIOD  47
  ------------------------------------------------------------------------------------------------

    CUMULATIVE VOLUMES             L**3    RATES FOR THIS TIME STEP         L**3/T
    ------------------                     ------------------------


          STREAM LOSS =     35198680.0000            STREAM LOSS =        9.0874E-02
    CHANGE IN STORAGE =      1338470.1250      CHANGE IN STORAGE =        2.7071E-02
       RECHARGE TO GW =     33868060.0000         RECHARGE TO GW =        6.3818E-02

             TOTAL IN =     35198680.0000               TOTAL IN =        9.0874E-02

            TOTAL OUT =     35206532.0000              TOTAL OUT =        9.0889E-02

             IN - OUT =        -7852.0000               IN - OUT =       -1.5095E-05

  PERCENT DISCREPANCY =           -0.01      PERCENT DISCREPANCY =            -0.00



1
  VOLUMETRIC BUDGET FOR ENTIRE MODEL AT END OF TIME STEP   30, STRESS PERIOD  47
  ------------------------------------------------------------------------------

     CUMULATIVE VOLUMES      L**3       RATES FOR THIS TIME STEP      L**3/T
     ------------------                 ------------------------

           IN:                                      IN:
           ---                                      ---
             STORAGE     =   115891504.0000               STORAGE     =           0.3660
       CONSTANT HEAD     =           0.0000         CONSTANT HEAD     =           0.0000
               WELLS     =           0.0000                 WELLS     =           0.0000
     HEAD DEP BOUNDS     =     3377168.7500       HEAD DEP BOUNDS     =       9.5551E-02
      STREAM LEAKAGE     =    33867856.0000        STREAM LEAKAGE     =       6.3818E-02

                TOTAL IN =   153136528.0000                  TOTAL IN =           0.5253

          OUT:                                     OUT:
          ----                                     ----
             STORAGE     =     3644688.0000               STORAGE     =           0.0000
       CONSTANT HEAD     =           0.0000         CONSTANT HEAD     =           0.0000
               WELLS     =   133105976.0000                 WELLS     =           0.5253
     HEAD DEP BOUNDS     =    16385952.0000       HEAD DEP BOUNDS     =           0.0000
      STREAM LEAKAGE     =           0.0000        STREAM LEAKAGE     =           0.0000

               TOTAL OUT =   153136608.0000                 TOTAL OUT =           0.5253

                IN - OUT =         -80.0000                  IN - OUT =      -5.9605E-08

     PERCENT DISCREPANCY =          -0.00         PERCENT DISCREPANCY =          -0.00






         TIME SUMMARY AT END OF TIME STEP   30 IN STRESS PERIOD   47
                    SECONDS     MINUTES      HOURS       DAYS        YEARS
                    -----------------------------------------------------------
   TIME STEP LENGTH 2.49961E+05  4166.0      69.434      2.8931     7.92080E-03
 STRESS PERIOD TIME 2.59200E+06  43200.      720.00      30.000     8.21355E-02
         TOTAL TIME 1.21824E+08 2.03040E+06  33840.      1410.0      3.8604    
1
1
                            STRESS PERIOD NO.   48, LENGTH =   2592000.    
                            -----------------------------------------------

                              NUMBER OF TIME STEPS =    30

                               MULTIPLIER FOR DELT =     1.100

                            INITIAL TIME STEP SIZE =   15757.40    

 REUSING NON-PARAMETER WELLS FROM LAST STRESS PERIOD

      1 WELL 

 REUSING NON-PARAMETER GHB CELLS FROM LAST STRESS PERIOD

      7 GHB CELLS



 CLASSIFICATION & COUNT OF STREAM SEGMENTS BASED ON SOURCE OF INFLOW:

                HEADWATER     DIVERSION     RECEIVES TRIBUTARY FLOW
                ---------     ---------     -----------------------
                     1              0               0



                    INPUT DATA FOR EACH STREAM SEGMENT
 ---------------------------------------------------------------------------------------------

 SEGMENT    SEG.     INFLOW   OVERLAND   STREAM    STREAM   ICALC  OUTFLOW  DIVERSION PRIORITY
    NO.    LENGTH     RATE     RUNOFF      ET       PPT.    METH.  TO SEG.  FROM SEG.    NO.

      1  2.000E+04 4.200E+00 0.000E+00 0.000E+00 0.000E+00    2        0        0        0


         STREAMBED PROPERTIES AND STREAM DIMENSIONS

 SEGMENT     BED HYD. COND.      BED THICKNESS     ELEV.-TOP OF BED     WIDTH OF STREAM     DEPTH OF STREAM    STREAM ROUGHNESS
    No.     UPPER     LOWER     UPPER     LOWER     UPPER     LOWER     UPPER     LOWER     UPPER     LOWER   CHANNEL      BANK

     1  3.500E-07 3.500E-07                                                                                 3.000E-02 4.000E-02

  EIGHT POINT CROSS-SECTION DATA FOR SEGMENTS WITH ICALC = 2
    X VALUES X VALUES START FROM LEFT SIDE LOOKING DOWNSTREAM

     SEGMENT NO.        X1        X2        X3        X4        X5        X6        X7        X8
            1      0.000E+00 2.000E+00 4.000E+00 6.000E+00 8.000E+00 1.000E+01 1.200E+01 1.400E+01

    Z VALUES ARE RELATIVE TO STREAMBED ELEVATION

     SEGMENT NO.          Z1        Z2        Z3        Z4        Z5        Z6        Z7        Z8
            1      6.000E+00 4.500E+00 3.500E+00 0.000E+00 3.000E-01 3.500E+00 4.500E+00 6.000E+00



 
 SOLVING FOR HEAD 
                                                   Max.-Head-Change                         Max.-Flux-Residual
  Residual-Control   Outer-Iter.   Inner-Iter.     Column Row Layer    Maximum-Head-Change  Column Row Layer    Maximum-Flux-Residual          L2-NORM 
          0                 1           2            50    3     1       0.3894324123E+00      50    3    1         0.1221420583E+00      0.1559975700E+00
          0                 2           2            50    3     1      -0.4010502910E-01      50    3    1        -0.1289238419E-01      0.1649937716E-01
          0                 3           2            50    3     1       0.3554668926E-02      50    3    1         0.1154370360E-02      0.1477858218E-02
          0                 4           2            50    3     1      -0.2821449978E-03      50    3    1        -0.9251208911E-04      0.1184793936E-03
          0                 5           1            50    3     1       0.1965256789E-04      50    3    1         0.6503215290E-05      0.8329902448E-05
          0                 6           1            50    3     1      -0.1180083786E-05      50    3    1        -0.3940705415E-06      0.5047986103E-06
          0                 7           1            50    3     1       0.5962809804E-07      50    3    1         0.2009368788E-07      0.2574050190E-07

    ------------------------------------------------
       NWT REQUIRED            7 OUTER ITERATIONS 
       AND A TOTAL OF         11 INNER ITERATIONS.
    ------------------------------------------------

 NO OUTPUT CONTROL FOR STRESS PERIOD   48   TIME STEP    1
 
 WELLS WITH REDUCED PUMPING FOR STRESS PERIOD    48 TIME STEP     1
   LAY   ROW   COL         APPL.Q          ACT.Q        GW-HEAD       CELL-BOT
     1     3    50  -0.620102E+00  -0.199417E+00   0.424118E+01   0.000000E+00
     1     5    55  -0.620102E+00  -0.155535E+00   0.362941E+01   0.000000E+00
 
 
 SOLVING FOR HEAD 
                                                   Max.-Head-Change                         Max.-Flux-Residual
  Residual-Control   Outer-Iter.   Inner-Iter.     Column Row Layer    Maximum-Head-Change  Column Row Layer    Maximum-Flux-Residual          L2-NORM 
          0                 1           2            50    3     1       0.2754770249E+00      50    3    1         0.8056143249E-01      0.1049764294E+00
          0                 2           2            50    3     1      -0.2774616407E-01      50    3    1        -0.8354048209E-02      0.1088291789E-01
          0                 3           2            50    3     1       0.2457388721E-02      50    3    1         0.7493722882E-03      0.9771928224E-03
          0                 4           2            50    3     1      -0.1948886946E-03      50    3    1        -0.6004403544E-04      0.7836515591E-04
          0                 5           1            50    3     1       0.1357332605E-04      50    3    1         0.4220917134E-05      0.5511179405E-05
          0                 6           1            50    3     1      -0.8150333963E-06      50    3    1        -0.2557713951E-06      0.3340289037E-06

    ------------------------------------------------
       NWT REQUIRED            6 OUTER ITERATIONS 
       AND A TOTAL OF         10 INNER ITERATIONS.
    ------------------------------------------------

 NO OUTPUT CONTROL FOR STRESS PERIOD   48   TIME STEP    2
 
 WELLS WITH REDUCED PUMPING FOR STRESS PERIOD    48 TIME STEP     2
   LAY   ROW   COL         APPL.Q          ACT.Q        GW-HEAD       CELL-BOT
     1     3    50  -0.620102E+00  -0.219168E+00   0.449119E+01   0.000000E+00
     1     5    55  -0.620102E+00  -0.170948E+00   0.383547E+01   0.000000E+00
 
 
 SOLVING FOR HEAD 
                                                   Max.-Head-Change                         Max.-Flux-Residual
  Residual-Control   Outer-Iter.   Inner-Iter.     Column Row Layer    Maximum-Head-Change  Column Row Layer    Maximum-Flux-Residual          L2-NORM 
          0                 1           2            50    3     1       0.1919748917E+00      50    3    1         0.5198982528E-01      0.7038366146E-01
          0                 2           2            50    3     1      -0.1898787335E-01      50    3    1        -0.5331496911E-02      0.7159812806E-02
          0                 3           2            50    3     1       0.1677643736E-02      50    3    1         0.4787527730E-03      0.6441283768E-03
          0                 4           2            50    3     1      -0.1328964882E-03      50    3    1        -0.3835625063E-04      0.5170206833E-04
          0                 5           1            50    3     1       0.9253700584E-05      50    3    1         0.2696356941E-05      0.3638555313E-05
          0                 6           1            50    3     1      -0.5556396861E-06      50    3    1        -0.1633886231E-06      0.2206168674E-06

    ------------------------------------------------
       NWT REQUIRED            6 OUTER ITERATIONS 
       AND A TOTAL OF         10 INNER ITERATIONS.
    ------------------------------------------------

 NO OUTPUT CONTROL FOR STRESS PERIOD   48   TIME STEP    3
 
 WELLS WITH REDUCED PUMPING FOR STRESS PERIOD    48 TIME STEP     3
   LAY   ROW   COL         APPL.Q          ACT.Q        GW-HEAD       CELL-BOT
     1     3    50  -0.619920E+00  -0.233112E+00   0.466573E+01   0.000000E+00
     1     5    55  -0.619920E+00  -0.182120E+00   0.398227E+01   0.000000E+00
 
 
 SOLVING FOR HEAD 
                                                   Max.-Head-Change                         Max.-Flux-Residual
  Residual-Control   Outer-Iter.   Inner-Iter.     Column Row Layer    Maximum-Head-Change  Column Row Layer    Maximum-Flux-Residual          L2-NORM 
          0                 1           2            50    3     1       0.1321922270E+00      50    3    1         0.3289362473E-01      0.4794361141E-01
          0                 2           2            50    3     1      -0.1285819291E-01      50    3    1        -0.3348242979E-02      0.4777409958E-02
          0                 3           2            50    3     1       0.1131578745E-02      50    3    1         0.3008619795E-03      0.4305722355E-03
          0                 4           1            50    3     1      -0.8949264868E-04      50    3    1        -0.2410254848E-04      0.3463101372E-04
          0                 5           1            50    3     1       0.6228940059E-05      50    3    1         0.1694357842E-05      0.2441146821E-05
          0                 6           1            50    3     1      -0.3739950680E-06      50    3    1        -0.1026710922E-06      0.1481659939E-06

    ------------------------------------------------
       NWT REQUIRED            6 OUTER ITERATIONS 
       AND A TOTAL OF          9 INNER ITERATIONS.
    ------------------------------------------------

 NO OUTPUT CONTROL FOR STRESS PERIOD   48   TIME STEP    4
 
 WELLS WITH REDUCED PUMPING FOR STRESS PERIOD    48 TIME STEP     4
   LAY   ROW   COL         APPL.Q          ACT.Q        GW-HEAD       CELL-BOT
     1     3    50  -0.620086E+00  -0.242928E+00   0.478611E+01   0.000000E+00
     1     5    55  -0.620086E+00  -0.190143E+00   0.408511E+01   0.000000E+00
 
 
 SOLVING FOR HEAD 
                                                   Max.-Head-Change                         Max.-Flux-Residual
  Residual-Control   Outer-Iter.   Inner-Iter.     Column Row Layer    Maximum-Head-Change  Column Row Layer    Maximum-Flux-Residual          L2-NORM 
          0                 1           2            50    3     1       0.9129386824E-01      50    3    1         0.2068044471E-01      0.3441465565E-01
          0                 2           2            50    3     1      -0.8736056351E-02      50    3    1        -0.2094020345E-02      0.3359941200E-02
          0                 3           2            50    3     1       0.7646805343E-03      50    3    1         0.1882459892E-03      0.3034781683E-03
          0                 4           1            50    3     1      -0.6033991575E-04      50    3    1        -0.1508002949E-04      0.2450232056E-04
          0                 5           1            50    3     1       0.4197109037E-05      50    3    1         0.1060091077E-05      0.1732879172E-05
          0                 6           1            50    3     1      -0.2519700622E-06      50    3    1        -0.6423669507E-07      0.1054130016E-06

    ------------------------------------------------
       NWT REQUIRED            6 OUTER ITERATIONS 
       AND A TOTAL OF          9 INNER ITERATIONS.
    ------------------------------------------------

 NO OUTPUT CONTROL FOR STRESS PERIOD   48   TIME STEP    5
 
 WELLS WITH REDUCED PUMPING FOR STRESS PERIOD    48 TIME STEP     5
   LAY   ROW   COL         APPL.Q          ACT.Q        GW-HEAD       CELL-BOT
     1     3    50  -0.620043E+00  -0.249694E+00   0.486938E+01   0.000000E+00
     1     5    55  -0.620043E+00  -0.195748E+00   0.415693E+01   0.000000E+00
 
 
 SOLVING FOR HEAD 
                                                   Max.-Head-Change                         Max.-Flux-Residual
  Residual-Control   Outer-Iter.   Inner-Iter.     Column Row Layer    Maximum-Head-Change  Column Row Layer    Maximum-Flux-Residual          L2-NORM 
          0                 1           2            50    3     1       0.6382479112E-01      50    3    1         0.1302480013E-01      0.2672326119E-01
          0                 2           2            50    3     1      -0.6008627339E-02      50    3    1        -0.1313544687E-02      0.2572307988E-02
          0                 3           2            50    3     1       0.5224537957E-03      50    3    1         0.1181233512E-03      0.2330222793E-03
          0                 4           1            50    3     1      -0.4110465800E-04      50    3    1        -0.9462332577E-05      0.1891828971E-04
          0                 5           1            50    3     1       0.2856387495E-05      50    3    1         0.6651738077E-06      0.1344797362E-05
          0                 6           1            50    3     1      -0.1714433791E-06      50    3    1        -0.4030600298E-07      0.8210827580E-07

    ------------------------------------------------
       NWT REQUIRED            6 OUTER ITERATIONS 
       AND A TOTAL OF          9 INNER ITERATIONS.
    ------------------------------------------------

 NO OUTPUT CONTROL FOR STRESS PERIOD   48   TIME STEP    6
 
 WELLS WITH REDUCED PUMPING FOR STRESS PERIOD    48 TIME STEP     6
   LAY   ROW   COL         APPL.Q          ACT.Q        GW-HEAD       CELL-BOT
     1     3    50  -0.619964E+00  -0.254427E+00   0.492768E+01   0.000000E+00
     1     5    55  -0.619964E+00  -0.199693E+00   0.420738E+01   0.000000E+00
 
 
 SOLVING FOR HEAD 
                                                   Max.-Head-Change                         Max.-Flux-Residual
  Residual-Control   Outer-Iter.   Inner-Iter.     Column Row Layer    Maximum-Head-Change  Column Row Layer    Maximum-Flux-Residual          L2-NORM 
          0                 1           2            50    3     1       0.4556939176E-01      50    3    1         0.8285047675E-02      0.2253006522E-01
          0                 2           2            50    2     1      -0.4426045284E-02      50    3    1        -0.8328175115E-03      0.2158431834E-02
          0                 3           2            50    2     1       0.3934853602E-03      50    3    1         0.7491370442E-04      0.1962003037E-03
          0                 4           1            50    2     1      -0.3119825037E-04      50    3    1        -0.6000844839E-05      0.1602596954E-04
          0                 5           1            50    2     1       0.2172597806E-05      50    3    1         0.4218347590E-06      0.1145978920E-05
          0                 6           1            50    2     1      -0.1304493367E-06      50    3    1        -0.2556046624E-07      0.7028989756E-07

    ------------------------------------------------
       NWT REQUIRED            6 OUTER ITERATIONS 
       AND A TOTAL OF          9 INNER ITERATIONS.
    ------------------------------------------------

 NO OUTPUT CONTROL FOR STRESS PERIOD   48   TIME STEP    7
 
 WELLS WITH REDUCED PUMPING FOR STRESS PERIOD    48 TIME STEP     7
   LAY   ROW   COL         APPL.Q          ACT.Q        GW-HEAD       CELL-BOT
     1     3    50  -0.619929E+00  -0.257826E+00   0.496936E+01   0.000000E+00
     1     5    55  -0.619929E+00  -0.202523E+00   0.424334E+01   0.000000E+00
 
 
 SOLVING FOR HEAD 
                                                   Max.-Head-Change                         Max.-Flux-Residual
  Residual-Control   Outer-Iter.   Inner-Iter.     Column Row Layer    Maximum-Head-Change  Column Row Layer    Maximum-Flux-Residual          L2-NORM 
          0                 1           2            50    2     1       0.4138549100E-01      50    3    1         0.5369085374E-02      0.2024293521E-01
          0                 2           2            50    2     1      -0.4080848428E-02      50    3    1        -0.5382219798E-03      0.1943119814E-02
          0                 3           2            50    2     1       0.3626986789E-03      50    3    1         0.4842597999E-04      0.1771993500E-03
          0                 4           1            50    2     1      -0.2875325910E-04      50    3    1        -0.3878999307E-05      0.1455318244E-04
          0                 5           1            50    2     1       0.2002173374E-05      50    3    1         0.2726709022E-06      0.1046590936E-05
          0                 6           1            50    2     1      -0.1202128939E-06      50    3    1        -0.1652163883E-07      0.6449465225E-07

    ------------------------------------------------
       NWT REQUIRED            6 OUTER ITERATIONS 
       AND A TOTAL OF          9 INNER ITERATIONS.
    ------------------------------------------------

 NO OUTPUT CONTROL FOR STRESS PERIOD   48   TIME STEP    8
 
 WELLS WITH REDUCED PUMPING FOR STRESS PERIOD    48 TIME STEP     8
   LAY   ROW   COL         APPL.Q          ACT.Q        GW-HEAD       CELL-BOT
     1     3    50  -0.619945E+00  -0.260349E+00   0.500004E+01   0.000000E+00
     1     5    55  -0.619945E+00  -0.204608E+00   0.426960E+01   0.000000E+00
 
 
 SOLVING FOR HEAD 
                                                   Max.-Head-Change                         Max.-Flux-Residual
  Residual-Control   Outer-Iter.   Inner-Iter.     Column Row Layer    Maximum-Head-Change  Column Row Layer    Maximum-Flux-Residual          L2-NORM 
          0                 1           2            50    2     1       0.3778357862E-01      50    2    1         0.4412944246E-02      0.1894088471E-01
          0                 2           2            50    2     1      -0.3726010038E-02      50    2    1        -0.4428273510E-03      0.1825066093E-02
          0                 3           2            50    2     1       0.3310770483E-03      50    2    1         0.3983816508E-04      0.1668826767E-03
          0                 4           1            50    2     1      -0.2624217590E-04      50    2    1        -0.3191171646E-05      0.1376878983E-04
          0                 5           1            50    2     1       0.1827145069E-05      50    2    1         0.2243354154E-06      0.9952237240E-06
          0                 6           1            50    2     1      -0.1096994990E-06      50    2    1        -0.1359384415E-07      0.6160401022E-07

    ------------------------------------------------
       NWT REQUIRED            6 OUTER ITERATIONS 
       AND A TOTAL OF          9 INNER ITERATIONS.
    ------------------------------------------------

 NO OUTPUT CONTROL FOR STRESS PERIOD   48   TIME STEP    9
 
 WELLS WITH REDUCED PUMPING FOR STRESS PERIOD    48 TIME STEP     9
   LAY   ROW   COL         APPL.Q          ACT.Q        GW-HEAD       CELL-BOT
     1     3    50  -0.619974E+00  -0.262285E+00   0.502346E+01   0.000000E+00
     1     5    55  -0.619974E+00  -0.206192E+00   0.428943E+01   0.000000E+00
 
 
 SOLVING FOR HEAD 
                                                   Max.-Head-Change                         Max.-Flux-Residual
  Residual-Control   Outer-Iter.   Inner-Iter.     Column Row Layer    Maximum-Head-Change  Column Row Layer    Maximum-Flux-Residual          L2-NORM 
          0                 1           2            50    2     1       0.3439732258E-01      50    2    1         0.3662570283E-02      0.1813850491E-01
          0                 2           2            50    2     1      -0.3391353184E-02      50    2    1        -0.3675823925E-03      0.1753663917E-02
          0                 3           2            50    2     1       0.3012619421E-03      50    2    1         0.3306844910E-04      0.1607171448E-03
          0                 4           1            50    2     1      -0.2387438963E-04      50    2    1        -0.2648897754E-05      0.1331312313E-04
          0                 5           1            50    2     1       0.1662089138E-05      50    2    1         0.1862142123E-06      0.9667681395E-06
          0                 6           1            50    2     1      -0.9978416507E-07      50    2    1        -0.1128384887E-07      0.6010136722E-07

    ------------------------------------------------
       NWT REQUIRED            6 OUTER ITERATIONS 
       AND A TOTAL OF          9 INNER ITERATIONS.
    ------------------------------------------------

 NO OUTPUT CONTROL FOR STRESS PERIOD   48   TIME STEP   10
 
 WELLS WITH REDUCED PUMPING FOR STRESS PERIOD    48 TIME STEP    10
   LAY   ROW   COL         APPL.Q          ACT.Q        GW-HEAD       CELL-BOT
     1     3    50  -0.619948E+00  -0.263811E+00   0.504217E+01   0.000000E+00
     1     5    55  -0.619948E+00  -0.207426E+00   0.430506E+01   0.000000E+00
 
 
 SOLVING FOR HEAD 
                                                   Max.-Head-Change                         Max.-Flux-Residual
  Residual-Control   Outer-Iter.   Inner-Iter.     Column Row Layer    Maximum-Head-Change  Column Row Layer    Maximum-Flux-Residual          L2-NORM 
          0                 1           2            50    2     1       0.3132217611E-01      50    2    1         0.3031259068E-02      0.1755213495E-01
          0                 2           2            50    2     1      -0.3087079416E-02      50    2    1        -0.3042003178E-03      0.1705577794E-02
          0                 3           2            50    2     1       0.2741560560E-03      50    2    1         0.2736675824E-04      0.1569895392E-03
          0                 4           1            50    2     1      -0.2172144753E-04      50    2    1        -0.2192170029E-05      0.1306673819E-04
          0                 5           1            50    2     1       0.1511981087E-05      50    2    1         0.1541068376E-06      0.9530293046E-06
          0                 6           1            50    2     1      -0.9076540911E-07      50    2    1        -0.9338268936E-08      0.5945456793E-07

    ------------------------------------------------
       NWT REQUIRED            6 OUTER ITERATIONS 
       AND A TOTAL OF          9 INNER ITERATIONS.
    ------------------------------------------------

 NO OUTPUT CONTROL FOR STRESS PERIOD   48   TIME STEP   11
 
 WELLS WITH REDUCED PUMPING FOR STRESS PERIOD    48 TIME STEP    11
   LAY   ROW   COL         APPL.Q          ACT.Q        GW-HEAD       CELL-BOT
     1     3    50  -0.620020E+00  -0.265100E+00   0.505746E+01   0.000000E+00
     1     5    55  -0.620020E+00  -0.208456E+00   0.431769E+01   0.000000E+00
 
 
 SOLVING FOR HEAD 
                                                   Max.-Head-Change                         Max.-Flux-Residual
  Residual-Control   Outer-Iter.   Inner-Iter.     Column Row Layer    Maximum-Head-Change  Column Row Layer    Maximum-Flux-Residual          L2-NORM 
          0                 1           2            50    1     1       0.2963365398E-01      50    2    1         0.2509410995E-02      0.1700994982E-01
          0                 2           2            50    1     1      -0.2935371502E-02      50    2    1        -0.2517720161E-03      0.1670084993E-02
          0                 3           2            50    1     1       0.2615354694E-03      50    2    1         0.2265080551E-04      0.1546533306E-03
          0                 4           1            50    1     1      -0.2075043828E-04      50    2    1        -0.1814400875E-05      0.1292702452E-04
          0                 5           1            50    1     1       0.1444833667E-05      50    2    1         0.1275501679E-06      0.9458061070E-06
          0                 6           1            50    1     1      -0.8672679707E-07      50    2    1        -0.7729038687E-08      0.5914301277E-07

    ------------------------------------------------
       NWT REQUIRED            6 OUTER ITERATIONS 
       AND A TOTAL OF          9 INNER ITERATIONS.
    ------------------------------------------------

 NO OUTPUT CONTROL FOR STRESS PERIOD   48   TIME STEP   12
 
 WELLS WITH REDUCED PUMPING FOR STRESS PERIOD    48 TIME STEP    12
   LAY   ROW   COL         APPL.Q          ACT.Q        GW-HEAD       CELL-BOT
     1     3    50  -0.620031E+00  -0.266169E+00   0.507041E+01   0.000000E+00
     1     5    55  -0.620031E+00  -0.209300E+00   0.432823E+01   0.000000E+00
 
 
 SOLVING FOR HEAD 
                                                   Max.-Head-Change                         Max.-Flux-Residual
  Residual-Control   Outer-Iter.   Inner-Iter.     Column Row Layer    Maximum-Head-Change  Column Row Layer    Maximum-Flux-Residual          L2-NORM 
          0                 1           2            50    1     1       0.2899677474E-01      50    1    1         0.2157282734E-02      0.1651269386E-01
          0                 2           2            50    1     1      -0.2872579166E-02      50    1    1        -0.2160951216E-03      0.1615496034E-02
          0                 3           2            50    1     1       0.2559106057E-03      50    1    1         0.1944488107E-04      0.1496566340E-03
          0                 4           1            50    1     1      -0.2030269297E-04      50    1    1        -0.1557564982E-05      0.1255397898E-04
          0                 5           1            50    1     1       0.1413402724E-05      50    1    1         0.1094373770E-06      0.9227840968E-06
          0                 6           1            50    1     1      -0.8482652952E-07      50    1    1        -0.6627911830E-08      0.5796618772E-07

    ------------------------------------------------
       NWT REQUIRED            6 OUTER ITERATIONS 
       AND A TOTAL OF          9 INNER ITERATIONS.
    ------------------------------------------------

 NO OUTPUT CONTROL FOR STRESS PERIOD   48   TIME STEP   13
 
 WELLS WITH REDUCED PUMPING FOR STRESS PERIOD    48 TIME STEP    13
   LAY   ROW   COL         APPL.Q          ACT.Q        GW-HEAD       CELL-BOT
     1     3    50  -0.620031E+00  -0.267097E+00   0.508168E+01   0.000000E+00
     1     5    55  -0.620031E+00  -0.210026E+00   0.433734E+01   0.000000E+00
 
 
 SOLVING FOR HEAD 
                                                   Max.-Head-Change                         Max.-Flux-Residual
  Residual-Control   Outer-Iter.   Inner-Iter.     Column Row Layer    Maximum-Head-Change  Column Row Layer    Maximum-Flux-Residual          L2-NORM 
          0                 1           2            50    1     1       0.2795639490E-01      50    1    1         0.1918995594E-02      0.1617461465E-01
          0                 2           2            50    1     1      -0.2769322389E-02      50    1    1        -0.1922765800E-03      0.1578402259E-02
          0                 3           2            50    1     1       0.2466718745E-03      50    1    1         0.1730111157E-04      0.1463517055E-03
          0                 4           1            50    1     1      -0.1956755805E-04      50    1    1        -0.1385849784E-05      0.1232263479E-04
          0                 5           1            50    1     1       0.1361866000E-05      50    1    1         0.9734782944E-07      0.9100300957E-06
          0                 6           1            50    1     1      -0.8171432720E-07      50    1    1        -0.5894235100E-08      0.5742977988E-07

    ------------------------------------------------
       NWT REQUIRED            6 OUTER ITERATIONS 
       AND A TOTAL OF          9 INNER ITERATIONS.
    ------------------------------------------------

 NO OUTPUT CONTROL FOR STRESS PERIOD   48   TIME STEP   14
 
 WELLS WITH REDUCED PUMPING FOR STRESS PERIOD    48 TIME STEP    14
   LAY   ROW   COL         APPL.Q          ACT.Q        GW-HEAD       CELL-BOT
     1     3    50  -0.620013E+00  -0.267923E+00   0.509181E+01   0.000000E+00
     1     5    55  -0.620013E+00  -0.210670E+00   0.434548E+01   0.000000E+00
 
 
 SOLVING FOR HEAD 
                                                   Max.-Head-Change                         Max.-Flux-Residual
  Residual-Control   Outer-Iter.   Inner-Iter.     Column Row Layer    Maximum-Head-Change  Column Row Layer    Maximum-Flux-Residual          L2-NORM 
          0                 1           2            50    1     1       0.2661663963E-01      50    1    1         0.1681957990E-02      0.1591716528E-01
          0                 2           2            50    1     1      -0.2636069645E-02      50    1    1        -0.1685509045E-03      0.1552426625E-02
          0                 3           2            50    1     1       0.2347562018E-03      50    1    1         0.1516601895E-04      0.1442004292E-03
          0                 4           1            50    1     1      -0.1861956354E-04      50    1    1        -0.1214827070E-05      0.1218812529E-04
          0                 5           1            50    1     1       0.1295408635E-05      50    1    1         0.8530356507E-07      0.9040825075E-06
          0                 6           1            50    1     1      -0.7770109051E-07       2    4    1        -0.5428814731E-08      0.5730189254E-07

    ------------------------------------------------
       NWT REQUIRED            6 OUTER ITERATIONS 
       AND A TOTAL OF          9 INNER ITERATIONS.
    ------------------------------------------------

 NO OUTPUT CONTROL FOR STRESS PERIOD   48   TIME STEP   15
 
 WELLS WITH REDUCED PUMPING FOR STRESS PERIOD    48 TIME STEP    15
   LAY   ROW   COL         APPL.Q          ACT.Q        GW-HEAD       CELL-BOT
     1     3    50  -0.620013E+00  -0.268681E+00   0.510100E+01   0.000000E+00
     1     5    55  -0.620013E+00  -0.211257E+00   0.435284E+01   0.000000E+00
 
 
 SOLVING FOR HEAD 
                                                   Max.-Head-Change                         Max.-Flux-Residual
  Residual-Control   Outer-Iter.   Inner-Iter.     Column Row Layer    Maximum-Head-Change  Column Row Layer    Maximum-Flux-Residual          L2-NORM 
          0                 1           2            50    1     1       0.2506970224E-01      50    1    1         0.1455803091E-02      0.1569935906E-01
          0                 2           2            50    1     1      -0.2482040519E-02      50    1    1        -0.1458947065E-03      0.1530622806E-02
          0                 3           2            50    1     1       0.2209855402E-03      50    1    1         0.1312736614E-04      0.1423787347E-03
          0                 4           1            50    1     1      -0.1752392691E-04      50    1    1        -0.1051527702E-05      0.1207528971E-04
          0                 5           1            50    1     1       0.1218550835E-05      23    4    1         0.7943673275E-07      0.8994081806E-06
          0                 6           1            50    1     1      -0.7305672578E-07       2    4    1        -0.5601368258E-08      0.5724952511E-07

    ------------------------------------------------
       NWT REQUIRED            6 OUTER ITERATIONS 
       AND A TOTAL OF          9 INNER ITERATIONS.
    ------------------------------------------------

 NO OUTPUT CONTROL FOR STRESS PERIOD   48   TIME STEP   16
 
 WELLS WITH REDUCED PUMPING FOR STRESS PERIOD    48 TIME STEP    16
   LAY   ROW   COL         APPL.Q          ACT.Q        GW-HEAD       CELL-BOT
     1     3    50  -0.620013E+00  -0.269376E+00   0.510945E+01   0.000000E+00
     1     5    55  -0.620013E+00  -0.211796E+00   0.435958E+01   0.000000E+00
 
 
 SOLVING FOR HEAD 
                                                   Max.-Head-Change                         Max.-Flux-Residual
  Residual-Control   Outer-Iter.   Inner-Iter.     Column Row Layer    Maximum-Head-Change  Column Row Layer    Maximum-Flux-Residual          L2-NORM 
          0                 1           2            50    1     1       0.2339087911E-01      50    1    1         0.1246577795E-02      0.1550628468E-01
          0                 2           2            50    1     1      -0.2314789047E-02      50    1    1        -0.1249233793E-03      0.1511786138E-02
          0                 3           2            50    1     1       0.2060336933E-03      50    1    1         0.1124043229E-04      0.1408695292E-03
          0                 4           1            50    1     1      -0.1633414479E-04      25    4    1        -0.9228187619E-06      0.1198922242E-04
          0                 5           1            50    1     1       0.1135005044E-05       2    4    1         0.7942885283E-07      0.8965371605E-06
          0                 6           1            50    1     1      -0.6800368744E-07       2    4    1        -0.5766132460E-08      0.5729929230E-07

    ------------------------------------------------
       NWT REQUIRED            6 OUTER ITERATIONS 
       AND A TOTAL OF          9 INNER ITERATIONS.
    ------------------------------------------------

 NO OUTPUT CONTROL FOR STRESS PERIOD   48   TIME STEP   17
 
 WELLS WITH REDUCED PUMPING FOR STRESS PERIOD    48 TIME STEP    17
   LAY   ROW   COL         APPL.Q          ACT.Q        GW-HEAD       CELL-BOT
     1     3    50  -0.620027E+00  -0.270023E+00   0.511722E+01   0.000000E+00
     1     5    55  -0.620027E+00  -0.212298E+00   0.436580E+01   0.000000E+00
 
 
 SOLVING FOR HEAD 
                                                   Max.-Head-Change                         Max.-Flux-Residual
  Residual-Control   Outer-Iter.   Inner-Iter.     Column Row Layer    Maximum-Head-Change  Column Row Layer    Maximum-Flux-Residual          L2-NORM 
          0                 1           2             2    1     1      -0.2251856983E-01      50    1    1         0.1057407577E-02      0.1534028803E-01
          0                 2           2            50    1     1      -0.2140519011E-02      50    1    1        -0.1059563735E-03      0.1495090691E-02
          0                 3           2            50    1     1       0.1904669664E-03      50    1    1         0.9533900065E-05      0.1394944534E-03
          0                 4           1            50    1     1      -0.1509567092E-04      27    4    1        -0.9023161169E-06      0.1191016371E-04
          0                 5           1            50    1     1       0.1047925263E-05       2    4    1         0.8053795852E-07      0.8939046280E-06
          0                 6           1            50    1     1      -0.6272962659E-07       2    4    1        -0.5891379828E-08      0.5735629298E-07

    ------------------------------------------------
       NWT REQUIRED            6 OUTER ITERATIONS 
       AND A TOTAL OF          9 INNER ITERATIONS.
    ------------------------------------------------

 NO OUTPUT CONTROL FOR STRESS PERIOD   48   TIME STEP   18
 
 WELLS WITH REDUCED PUMPING FOR STRESS PERIOD    48 TIME STEP    18
   LAY   ROW   COL         APPL.Q          ACT.Q        GW-HEAD       CELL-BOT
     1     3    50  -0.620021E+00  -0.270617E+00   0.512446E+01   0.000000E+00
     1     5    55  -0.620021E+00  -0.212760E+00   0.437160E+01   0.000000E+00
 
 
 SOLVING FOR HEAD 
                                                   Max.-Head-Change                         Max.-Flux-Residual
  Residual-Control   Outer-Iter.   Inner-Iter.     Column Row Layer    Maximum-Head-Change  Column Row Layer    Maximum-Flux-Residual          L2-NORM 
          0                 1           2             1    1     1      -0.2476687151E-01       3    5    1        -0.9318130782E-03      0.1519172962E-01
          0                 2           2             1    1     1       0.2282432106E-02       3    5    1         0.9317739150E-04      0.1480791459E-02
          0                 3           2             2    1     1      -0.1901830053E-03       3    3    1        -0.8386277074E-05      0.1383757488E-03
          0                 4           1             1    1     1       0.1417922174E-04      29    4    1        -0.8717896254E-06      0.1185239955E-04
          0                 5           1            51    1     1       0.9711654907E-06       2    4    1         0.8236285964E-07      0.8925327379E-06

    ------------------------------------------------
       NWT REQUIRED            5 OUTER ITERATIONS 
       AND A TOTAL OF          8 INNER ITERATIONS.
    ------------------------------------------------

 NO OUTPUT CONTROL FOR STRESS PERIOD   48   TIME STEP   19
 
 WELLS WITH REDUCED PUMPING FOR STRESS PERIOD    48 TIME STEP    19
   LAY   ROW   COL         APPL.Q          ACT.Q        GW-HEAD       CELL-BOT
     1     3    50  -0.619987E+00  -0.271159E+00   0.513121E+01   0.000000E+00
     1     5    55  -0.619987E+00  -0.213185E+00   0.437705E+01   0.000000E+00
 
 
 SOLVING FOR HEAD 
                                                   Max.-Head-Change                         Max.-Flux-Residual
  Residual-Control   Outer-Iter.   Inner-Iter.     Column Row Layer    Maximum-Head-Change  Column Row Layer    Maximum-Flux-Residual          L2-NORM 
          0                 1           2             1    1     1      -0.2722949189E-01       1    3    1        -0.9316552712E-03      0.1505616381E-01
          0                 2           2             1    1     1       0.2502379811E-02       1    3    1         0.9316129853E-04      0.1467522228E-02
          0                 3           2             1    1     1      -0.2077760464E-03       1    3    1        -0.8384861040E-05      0.1373392194E-03
          0                 4           1             1    1     1       0.1542549418E-04       1    4    1        -0.8785775876E-06      0.1180006416E-04
          0                 5           1             1    1     1      -0.1006900412E-05       2    4    1         0.8394821016E-07      0.8912258126E-06
          0                 6           1            51    1     1      -0.5807639579E-07       2    4    1        -0.6193529245E-08      0.5757326678E-07

    ------------------------------------------------
       NWT REQUIRED            6 OUTER ITERATIONS 
       AND A TOTAL OF          9 INNER ITERATIONS.
    ------------------------------------------------

 NO OUTPUT CONTROL FOR STRESS PERIOD   48   TIME STEP   20
 
 WELLS WITH REDUCED PUMPING FOR STRESS PERIOD    48 TIME STEP    20
   LAY   ROW   COL         APPL.Q          ACT.Q        GW-HEAD       CELL-BOT
     1     3    50  -0.619981E+00  -0.271668E+00   0.513742E+01   0.000000E+00
     1     5    55  -0.619981E+00  -0.213585E+00   0.438208E+01   0.000000E+00
 
 
 SOLVING FOR HEAD 
                                                   Max.-Head-Change                         Max.-Flux-Residual
  Residual-Control   Outer-Iter.   Inner-Iter.     Column Row Layer    Maximum-Head-Change  Column Row Layer    Maximum-Flux-Residual          L2-NORM 
          0                 1           2             1    1     1      -0.2992918302E-01       1    5    1        -0.9310215076E-03      0.1493266732E-01
          0                 2           2             1    1     1       0.2742994585E-02       1    5    1         0.9309757150E-04      0.1455536861E-02
          0                 3           2             1    1     1      -0.2269680474E-03       1    5    1        -0.8379161285E-05      0.1363797553E-03
          0                 4           1             1    1     1       0.1677809946E-04      32    4    1        -0.9015079900E-06      0.1174956918E-04
          0                 5           1             1    1     1      -0.1087826962E-05       2    4    1         0.8537660356E-07      0.8894733661E-06
          0                 6           1             1    1     1       0.6124936680E-07       2    4    1        -0.6323531920E-08      0.5761657063E-07

    ------------------------------------------------
       NWT REQUIRED            6 OUTER ITERATIONS 
       AND A TOTAL OF          9 INNER ITERATIONS.
    ------------------------------------------------

 NO OUTPUT CONTROL FOR STRESS PERIOD   48   TIME STEP   21
 
 WELLS WITH REDUCED PUMPING FOR STRESS PERIOD    48 TIME STEP    21
   LAY   ROW   COL         APPL.Q          ACT.Q        GW-HEAD       CELL-BOT
     1     3    50  -0.620000E+00  -0.272144E+00   0.514308E+01   0.000000E+00
     1     5    55  -0.620000E+00  -0.213961E+00   0.438669E+01   0.000000E+00
 
 
 SOLVING FOR HEAD 
                                                   Max.-Head-Change                         Max.-Flux-Residual
  Residual-Control   Outer-Iter.   Inner-Iter.     Column Row Layer    Maximum-Head-Change  Column Row Layer    Maximum-Flux-Residual          L2-NORM 
          0                 1           2             1    1     1      -0.3289208518E-01       1    7    1        -0.9304172065E-03      0.1480665628E-01
          0                 2           2             1    1     1       0.3006665898E-02       1    7    1         0.9303866268E-04      0.1443696966E-02
          0                 3           2             1    1     1      -0.2479492939E-03       1    7    1        -0.8373789269E-05      0.1354561994E-03
          0                 4           1             1    1     1       0.1825060852E-04       1    4    1        -0.8996573353E-06      0.1170268014E-04
          0                 5           1             1    1     1      -0.1174443470E-05       2    4    1         0.8670654061E-07      0.8875841449E-06
          0                 6           1             1    1     1       0.6561195714E-07       2    4    1        -0.6443697131E-08      0.5762204474E-07

    ------------------------------------------------
       NWT REQUIRED            6 OUTER ITERATIONS 
       AND A TOTAL OF          9 INNER ITERATIONS.
    ------------------------------------------------

 NO OUTPUT CONTROL FOR STRESS PERIOD   48   TIME STEP   22
 
 WELLS WITH REDUCED PUMPING FOR STRESS PERIOD    48 TIME STEP    22
   LAY   ROW   COL         APPL.Q          ACT.Q        GW-HEAD       CELL-BOT
     1     3    50  -0.619996E+00  -0.272560E+00   0.514816E+01   0.000000E+00
     1     5    55  -0.619996E+00  -0.214290E+00   0.439082E+01   0.000000E+00
 
 
 SOLVING FOR HEAD 
                                                   Max.-Head-Change                         Max.-Flux-Residual
  Residual-Control   Outer-Iter.   Inner-Iter.     Column Row Layer    Maximum-Head-Change  Column Row Layer    Maximum-Flux-Residual          L2-NORM 
          0                 1           2             1    1     1      -0.3614469742E-01       1    7    1        -0.9297713448E-03      0.1470333712E-01
          0                 2           2             1    1     1       0.3295849761E-02       1    7    1         0.9297364876E-04      0.1433143598E-02
          0                 3           2             1    1     1      -0.2709103728E-03       1    7    1        -0.8367978082E-05      0.1345907098E-03
          0                 4           1             1    1     1       0.1985542131E-04       1    4    1        -0.9089664594E-06      0.1165770402E-04
          0                 5           1             1    1     1      -0.1266892321E-05       2    4    1         0.8794565076E-07      0.8851862202E-06
          0                 6           1             1    1     1       0.7015723811E-07       2    4    1        -0.6553698029E-08      0.5755713148E-07

    ------------------------------------------------
       NWT REQUIRED            6 OUTER ITERATIONS 
       AND A TOTAL OF          9 INNER ITERATIONS.
    ------------------------------------------------

 NO OUTPUT CONTROL FOR STRESS PERIOD   48   TIME STEP   23
 
 WELLS WITH REDUCED PUMPING FOR STRESS PERIOD    48 TIME STEP    23
   LAY   ROW   COL         APPL.Q          ACT.Q        GW-HEAD       CELL-BOT
     1     3    50  -0.620011E+00  -0.272930E+00   0.515255E+01   0.000000E+00
     1     5    55  -0.620011E+00  -0.214588E+00   0.439446E+01   0.000000E+00
 
 
 SOLVING FOR HEAD 
                                                   Max.-Head-Change                         Max.-Flux-Residual
  Residual-Control   Outer-Iter.   Inner-Iter.     Column Row Layer    Maximum-Head-Change  Column Row Layer    Maximum-Flux-Residual          L2-NORM 
          0                 1           2             5    1     1      -0.3975394753E-01       1    7    1        -0.9290205482E-03      0.1463131218E-01
          0                 2           2             6    7     1       0.3652436740E-02       1    1    1         0.9289831222E-04      0.1424330585E-02
          0                 3           2             6    7     1      -0.3025078563E-03       1    7    1        -0.8361235497E-05      0.1334195339E-03
          0                 4           1             6    1     1       0.2226369236E-04       2    4    1        -0.9221944790E-06      0.1154398058E-04
          0                 5           1             5    1     1      -0.1403508331E-05       2    4    1         0.8974633303E-07      0.8747614438E-06
          0                 6           1             5    1     1       0.7659397658E-07       2    4    1        -0.6710386913E-08      0.5687370052E-07

    ------------------------------------------------
       NWT REQUIRED            6 OUTER ITERATIONS 
       AND A TOTAL OF          9 INNER ITERATIONS.
    ------------------------------------------------

 NO OUTPUT CONTROL FOR STRESS PERIOD   48   TIME STEP   24
 
 WELLS WITH REDUCED PUMPING FOR STRESS PERIOD    48 TIME STEP    24
   LAY   ROW   COL         APPL.Q          ACT.Q        GW-HEAD       CELL-BOT
     1     3    50  -0.619997E+00  -0.273264E+00   0.515668E+01   0.000000E+00
     1     5    55  -0.619997E+00  -0.214866E+00   0.439800E+01   0.000000E+00
 
 
 SOLVING FOR HEAD 
                                                   Max.-Head-Change                         Max.-Flux-Residual
  Residual-Control   Outer-Iter.   Inner-Iter.     Column Row Layer    Maximum-Head-Change  Column Row Layer    Maximum-Flux-Residual          L2-NORM 
          0                 1           2             3    1     1      -0.4387244288E-01       5    5    1        -0.9304819621E-03      0.1453902251E-01
          0                 2           2             5    1     1       0.4035519171E-02       5    3    1         0.9304386669E-04      0.1415387115E-02
          0                 3           2             6    7     1      -0.3348259005E-03       5    3    1        -0.8374444864E-05      0.1324953507E-03
          0                 4           1             6    1     1       0.2465308766E-04      15    4    1        -0.8808287557E-06      0.1146496444E-04
          0                 5           1             5    1     1      -0.1546949084E-05      15    4    1         0.8552649966E-07      0.8664015923E-06
          0                 6           1             5    1     1       0.8358765862E-07       2    4    1        -0.6417995024E-08      0.5625523480E-07

    ------------------------------------------------
       NWT REQUIRED            6 OUTER ITERATIONS 
       AND A TOTAL OF          9 INNER ITERATIONS.
    ------------------------------------------------

 NO OUTPUT CONTROL FOR STRESS PERIOD   48   TIME STEP   25
 
 WELLS WITH REDUCED PUMPING FOR STRESS PERIOD    48 TIME STEP    25
   LAY   ROW   COL         APPL.Q          ACT.Q        GW-HEAD       CELL-BOT
     1     3    50  -0.620007E+00  -0.273573E+00   0.516037E+01   0.000000E+00
     1     5    55  -0.620007E+00  -0.215133E+00   0.440129E+01   0.000000E+00
 
 
 SOLVING FOR HEAD 
                                                   Max.-Head-Change                         Max.-Flux-Residual
  Residual-Control   Outer-Iter.   Inner-Iter.     Column Row Layer    Maximum-Head-Change  Column Row Layer    Maximum-Flux-Residual          L2-NORM 
          0                 1           2             1    1     1      -0.4835558349E-01       3    5    1        -0.9340572911E-03      0.1443097783E-01
          0                 2           2             5    1     1       0.4441189757E-02       3    3    1         0.9339949787E-04      0.1405773362E-02
          0                 3           2             5    1     1      -0.3678131068E-03       3    5    1        -0.8406524318E-05      0.1316221216E-03
          0                 4           1             5    1     1       0.2700194342E-04      17    4    1        -0.8734372283E-06      0.1140101039E-04
          0                 5           1             5    1     1      -0.1673561131E-05       2    4    1         0.8641313087E-07      0.8589099967E-06
          0                 6           1             4    1     1       0.8944513991E-07       2    4    1        -0.6571200473E-08      0.5566556381E-07

    ------------------------------------------------
       NWT REQUIRED            6 OUTER ITERATIONS 
       AND A TOTAL OF          9 INNER ITERATIONS.
    ------------------------------------------------

 NO OUTPUT CONTROL FOR STRESS PERIOD   48   TIME STEP   26
 
 WELLS WITH REDUCED PUMPING FOR STRESS PERIOD    48 TIME STEP    26
   LAY   ROW   COL         APPL.Q          ACT.Q        GW-HEAD       CELL-BOT
     1     3    50  -0.620004E+00  -0.273843E+00   0.516366E+01   0.000000E+00
     1     5    55  -0.620004E+00  -0.215382E+00   0.440440E+01   0.000000E+00
 
 
 SOLVING FOR HEAD 
                                                   Max.-Head-Change                         Max.-Flux-Residual
  Residual-Control   Outer-Iter.   Inner-Iter.     Column Row Layer    Maximum-Head-Change  Column Row Layer    Maximum-Flux-Residual          L2-NORM 
          0                 1           3             1    1     1      -0.5266288030E-01       1    5    1        -0.9357693502E-03      0.1424618593E-01
          0                 2           2             3    1     1       0.4782736165E-02       1    5    1         0.9356097149E-04      0.1396904045E-02
          0                 3           2             4    1     1      -0.3925005708E-03       1    5    1        -0.8421206328E-05      0.1317943080E-03
          0                 4           1             4    1     1       0.2857314604E-04      11    4    1        -0.9954128402E-06      0.1148852235E-04
          0                 5           1             4    1     1      -0.1743413788E-05      11    4    1         0.9459914629E-07      0.8646952859E-06
          0                 6           1             4    1     1       0.9175607494E-07      12    4    1        -0.6876257785E-08      0.5595807775E-07

    ------------------------------------------------
       NWT REQUIRED            6 OUTER ITERATIONS 
       AND A TOTAL OF         10 INNER ITERATIONS.
    ------------------------------------------------

 NO OUTPUT CONTROL FOR STRESS PERIOD   48   TIME STEP   27
 
 WELLS WITH REDUCED PUMPING FOR STRESS PERIOD    48 TIME STEP    27
   LAY   ROW   COL         APPL.Q          ACT.Q        GW-HEAD       CELL-BOT
     1     3    50  -0.620001E+00  -0.274096E+00   0.516674E+01   0.000000E+00
     1     5    55  -0.620001E+00  -0.215631E+00   0.440752E+01   0.000000E+00
 
 
 SOLVING FOR HEAD 
                                                   Max.-Head-Change                         Max.-Flux-Residual
  Residual-Control   Outer-Iter.   Inner-Iter.     Column Row Layer    Maximum-Head-Change  Column Row Layer    Maximum-Flux-Residual          L2-NORM 
          0                 1           3             1    1     1      -0.5373664020E-01       1    7    1        -0.9248544969E-03      0.1382191014E-01
          0                 2           2             3    1     1       0.4917328639E-02       1    7    1         0.9243308246E-04      0.1392017843E-02
          0                 3           2             4    1     1      -0.4047140495E-03       1    4    1         0.1001826375E-04      0.1334748769E-03
          0                 4           1             4    1     1       0.2949103015E-04       1    4    1        -0.1176755333E-05      0.1170010457E-04
          0                 5           1             3    1     1      -0.1775745227E-05       1    4    1         0.1039163742E-06      0.8752388730E-06
          0                 6           1             3    1     1       0.9268797344E-07       1    4    1        -0.7256376833E-08      0.5626999366E-07

    ------------------------------------------------
       NWT REQUIRED            6 OUTER ITERATIONS 
       AND A TOTAL OF         10 INNER ITERATIONS.
    ------------------------------------------------

 NO OUTPUT CONTROL FOR STRESS PERIOD   48   TIME STEP   28
 
 WELLS WITH REDUCED PUMPING FOR STRESS PERIOD    48 TIME STEP    28
   LAY   ROW   COL         APPL.Q          ACT.Q        GW-HEAD       CELL-BOT
     1     3    50  -0.619989E+00  -0.274266E+00   0.516886E+01   0.000000E+00
     1     5    55  -0.619989E+00  -0.215821E+00   0.440993E+01   0.000000E+00
 
 
 SOLVING FOR HEAD 
                                                   Max.-Head-Change                         Max.-Flux-Residual
  Residual-Control   Outer-Iter.   Inner-Iter.     Column Row Layer    Maximum-Head-Change  Column Row Layer    Maximum-Flux-Residual          L2-NORM 
          0                 1           3             1    1     1      -0.5819747323E-01       1    7    1        -0.8575233695E-03      0.1318845903E-01
          0                 2           2             3    1     1       0.5301875235E-02       1    7    1         0.8573761202E-04      0.1307256807E-02
          0                 3           2             3    1     1      -0.4341240530E-03      28    4    1         0.9530651043E-05      0.1243741911E-03
          0                 4           1             3    1     1       0.3138776534E-04      28    4    1        -0.1063010229E-05      0.1089913779E-04
          0                 5           1             1    1     1      -0.1844652901E-05      28    4    1         0.9335007256E-07      0.8101406109E-06
          0                 6           1             1    1     1       0.9443201786E-07      28    4    1        -0.6552967946E-08      0.5197175670E-07

    ------------------------------------------------
       NWT REQUIRED            6 OUTER ITERATIONS 
       AND A TOTAL OF         10 INNER ITERATIONS.
    ------------------------------------------------

 NO OUTPUT CONTROL FOR STRESS PERIOD   48   TIME STEP   29
 
 WELLS WITH REDUCED PUMPING FOR STRESS PERIOD    48 TIME STEP    29
   LAY   ROW   COL         APPL.Q          ACT.Q        GW-HEAD       CELL-BOT
     1     3    50  -0.620007E+00  -0.274355E+00   0.516984E+01   0.000000E+00
     1     5    55  -0.620007E+00  -0.215948E+00   0.441144E+01   0.000000E+00
 
 
 SOLVING FOR HEAD 
                                                   Max.-Head-Change                         Max.-Flux-Residual
  Residual-Control   Outer-Iter.   Inner-Iter.     Column Row Layer    Maximum-Head-Change  Column Row Layer    Maximum-Flux-Residual          L2-NORM 
          0                 1           3             1    1     1      -0.6389369748E-01       1    7    1        -0.8444733743E-03      0.1285777893E-01
          0                 2           2             1    1     1       0.5822108800E-02       1    7    1         0.8444103582E-04      0.1266011248E-02
          0                 3           2             1    1     1      -0.4758726788E-03      34    4    1         0.8912026997E-05      0.1200212628E-03
          0                 4           1             1    1     1       0.3427540325E-04      34    4    1        -0.9725362755E-06      0.1052020510E-04
          0                 5           1             1    1     1      -0.1959199138E-05      13    4    1         0.8461630507E-07      0.7745367605E-06
          0                 6           1             1    1     1       0.9773714722E-07      14    4    1        -0.6084711401E-08      0.4945228050E-07

    ------------------------------------------------
       NWT REQUIRED            6 OUTER ITERATIONS 
       AND A TOTAL OF         10 INNER ITERATIONS.
    ------------------------------------------------

 NO OUTPUT CONTROL FOR STRESS PERIOD   48   TIME STEP   30
 
 WELLS WITH REDUCED PUMPING FOR STRESS PERIOD    48 TIME STEP    30
   LAY   ROW   COL         APPL.Q          ACT.Q        GW-HEAD       CELL-BOT
     1     3    50  -0.619949E+00  -0.274402E+00   0.517073E+01   0.000000E+00
     1     5    55  -0.619949E+00  -0.216062E+00   0.441312E+01   0.000000E+00
 



 STREAM LISTING     PERIOD     48   STEP       30

 LAYER ROW COL. STREAM  RCH.   FLOW INTO    STREAM     FLOW OUT OF   OVRLND.    DIRECT     STREAM      STREAM      STREAM     STREAM  STREAMBED   FLOW TO   CHNG. UNSAT. 
                SEG.NO.  NO.   STRM. RCH.    LOSS       STRM. RCH.   RUNOFF     PRECIP       ET         HEAD        DEPTH      WIDTH  CONDCTNC.   WAT. TAB.

   1    4    1     1     1    4.2000E+00  1.5035E-03   4.1985E+00  0.000E+00  0.000E+00  0.000E+00  1.41391E+02  1.541E+00  3.656E+00  7.366E-04  1.516E-03 -1.200E-05
   1    4    2     1     2    4.1985E+00  1.5031E-03   4.1970E+00  0.000E+00  0.000E+00  0.000E+00  1.41091E+02  1.541E+00  3.656E+00  7.365E-04  1.514E-03 -1.102E-05
   1    4    3     1     3    4.1970E+00  1.5027E-03   4.1955E+00  0.000E+00  0.000E+00  0.000E+00  1.40791E+02  1.541E+00  3.656E+00  7.364E-04  1.513E-03 -1.039E-05
   1    4    4     1     4    4.1955E+00  1.5023E-03   4.1940E+00  0.000E+00  0.000E+00  0.000E+00  1.40490E+02  1.540E+00  3.655E+00  7.363E-04  1.512E-03 -1.010E-05
   1    4    5     1     5    4.1940E+00  1.5019E-03   4.1925E+00  0.000E+00  0.000E+00  0.000E+00  1.40190E+02  1.540E+00  3.655E+00  7.362E-04  1.512E-03 -1.017E-05
   1    4    6     1     6    4.1925E+00  1.5015E-03   4.1910E+00  0.000E+00  0.000E+00  0.000E+00  1.39890E+02  1.540E+00  3.655E+00  7.361E-04  1.512E-03 -1.058E-05
   1    4    7     1     7    4.1910E+00  1.5011E-03   4.1895E+00  0.000E+00  0.000E+00  0.000E+00  1.39590E+02  1.540E+00  3.654E+00  7.360E-04  1.512E-03 -1.135E-05
   1    4    8     1     8    4.1895E+00  1.5007E-03   4.1880E+00  0.000E+00  0.000E+00  0.000E+00  1.39289E+02  1.539E+00  3.654E+00  7.359E-04  1.513E-03 -1.248E-05
   1    4    9     1     9    4.1880E+00  1.5003E-03   4.1865E+00  0.000E+00  0.000E+00  0.000E+00  1.38989E+02  1.539E+00  3.654E+00  7.358E-04  1.514E-03 -1.396E-05
   1    4   10     1    10    4.1865E+00  1.4999E-03   4.1850E+00  0.000E+00  0.000E+00  0.000E+00  1.38689E+02  1.539E+00  3.653E+00  7.357E-04  1.516E-03 -1.579E-05
   1    4   11     1    11    4.1850E+00  1.4995E-03   4.1835E+00  0.000E+00  0.000E+00  0.000E+00  1.38388E+02  1.538E+00  3.653E+00  7.356E-04  1.517E-03 -1.797E-05
   1    4   12     1    12    4.1835E+00  1.4991E-03   4.1820E+00  0.000E+00  0.000E+00  0.000E+00  1.38088E+02  1.538E+00  3.653E+00  7.355E-04  1.521E-03 -2.190E-05
   1    4   13     1    13    4.1820E+00  1.4987E-03   4.1805E+00  0.000E+00  0.000E+00  0.000E+00  1.37788E+02  1.538E+00  3.652E+00  7.354E-04  1.526E-03 -2.729E-05
   1    4   14     1    14    4.1805E+00  1.4983E-03   4.1790E+00  0.000E+00  0.000E+00  0.000E+00  1.37488E+02  1.538E+00  3.652E+00  7.354E-04  1.526E-03 -2.742E-05
   1    4   15     1    15    4.1790E+00  1.4979E-03   4.1775E+00  0.000E+00  0.000E+00  0.000E+00  1.37187E+02  1.537E+00  3.652E+00  7.353E-04  1.525E-03 -2.757E-05
   1    4   16     1    16    4.1775E+00  1.4975E-03   4.1760E+00  0.000E+00  0.000E+00  0.000E+00  1.36887E+02  1.537E+00  3.651E+00  7.352E-04  1.525E-03 -2.773E-05
   1    4   17     1    17    4.1760E+00  1.4971E-03   4.1745E+00  0.000E+00  0.000E+00  0.000E+00  1.36587E+02  1.537E+00  3.651E+00  7.351E-04  1.525E-03 -2.793E-05
   1    4   18     1    18    4.1745E+00  1.4967E-03   4.1730E+00  0.000E+00  0.000E+00  0.000E+00  1.36286E+02  1.536E+00  3.651E+00  7.350E-04  1.525E-03 -2.816E-05
   1    4   19     1    19    4.1730E+00  1.4963E-03   4.1715E+00  0.000E+00  0.000E+00  0.000E+00  1.35986E+02  1.536E+00  3.650E+00  7.349E-04  1.525E-03 -2.842E-05
   1    4   20     1    20    4.1715E+00  1.4959E-03   4.1700E+00  0.000E+00  0.000E+00  0.000E+00  1.35686E+02  1.536E+00  3.650E+00  7.348E-04  1.525E-03 -2.865E-05
   1    4   21     1    21    4.1700E+00  1.4955E-03   4.1685E+00  0.000E+00  0.000E+00  0.000E+00  1.35386E+02  1.536E+00  3.650E+00  7.347E-04  1.527E-03 -3.195E-05
   1    4   22     1    22    4.1685E+00  1.4951E-03   4.1670E+00  0.000E+00  0.000E+00  0.000E+00  1.35085E+02  1.535E+00  3.649E+00  7.346E-04  1.562E-03 -6.672E-05
   1    4   23     1    23    4.1670E+00  1.4947E-03   4.1655E+00  0.000E+00  0.000E+00  0.000E+00  1.34785E+02  1.535E+00  3.649E+00  7.345E-04  1.572E-03 -7.773E-05
   1    4   24     1    24    4.1655E+00  1.4943E-03   4.1640E+00  0.000E+00  0.000E+00  0.000E+00  1.34485E+02  1.535E+00  3.649E+00  7.344E-04  1.573E-03 -7.821E-05
   1    4   25     1    25    4.1640E+00  1.4939E-03   4.1625E+00  0.000E+00  0.000E+00  0.000E+00  1.34184E+02  1.534E+00  3.648E+00  7.343E-04  1.573E-03 -7.869E-05
   1    4   26     1    26    4.1625E+00  1.4935E-03   4.1610E+00  0.000E+00  0.000E+00  0.000E+00  1.33884E+02  1.534E+00  3.648E+00  7.342E-04  1.573E-03 -7.915E-05
   1    4   27     1    27    4.1610E+00  1.4931E-03   4.1595E+00  0.000E+00  0.000E+00  0.000E+00  1.33584E+02  1.534E+00  3.648E+00  7.341E-04  1.574E-03 -8.063E-05
   1    4   28     1    28    4.1595E+00  1.4927E-03   4.1581E+00  0.000E+00  0.000E+00  0.000E+00  1.33284E+02  1.534E+00  3.647E+00  7.340E-04  1.581E-03 -8.802E-05
   1    4   29     1    29    4.1581E+00  1.4923E-03   4.1566E+00  0.000E+00  0.000E+00  0.000E+00  1.32983E+02  1.533E+00  3.647E+00  7.340E-04  1.583E-03 -9.101E-05
   1    4   30     1    30    4.1566E+00  1.4919E-03   4.1551E+00  0.000E+00  0.000E+00  0.000E+00  1.32683E+02  1.533E+00  3.647E+00  7.339E-04  1.584E-03 -9.197E-05
   1    4   31     1    31    4.1551E+00  1.4915E-03   4.1536E+00  0.000E+00  0.000E+00  0.000E+00  1.32383E+02  1.533E+00  3.646E+00  7.338E-04  1.584E-03 -9.299E-05
   1    4   32     1    32    4.1536E+00  1.4911E-03   4.1521E+00  0.000E+00  0.000E+00  0.000E+00  1.32082E+02  1.532E+00  3.646E+00  7.337E-04  1.585E-03 -9.407E-05
   1    4   33     1    33    4.1521E+00  1.4907E-03   4.1506E+00  0.000E+00  0.000E+00  0.000E+00  1.31782E+02  1.532E+00  3.646E+00  7.336E-04  1.586E-03 -9.517E-05
   1    4   34     1    34    4.1506E+00  1.4903E-03   4.1491E+00  0.000E+00  0.000E+00  0.000E+00  1.31482E+02  1.532E+00  3.645E+00  7.335E-04  1.590E-03 -9.955E-05
   1    4   35     1    35    4.1491E+00  1.4899E-03   4.1476E+00  0.000E+00  0.000E+00  0.000E+00  1.31182E+02  1.532E+00  3.645E+00  7.334E-04  1.504E-03 -1.441E-05
   1    4   36     1    36    4.1476E+00  1.4895E-03   4.1461E+00  0.000E+00  0.000E+00  0.000E+00  1.30881E+02  1.531E+00  3.645E+00  7.333E-04  1.396E-03  9.322E-05
   1    4   37     1    37    4.1461E+00  1.4891E-03   4.1446E+00  0.000E+00  0.000E+00  0.000E+00  1.30581E+02  1.531E+00  3.644E+00  7.332E-04  1.281E-03  2.080E-04
   1    4   38     1    38    4.1446E+00  1.4887E-03   4.1431E+00  0.000E+00  0.000E+00  0.000E+00  1.30281E+02  1.531E+00  3.644E+00  7.331E-04  1.159E-03  3.302E-04
   1    4   39     1    39    4.1431E+00  1.4883E-03   4.1417E+00  0.000E+00  0.000E+00  0.000E+00  1.29980E+02  1.530E+00  3.643E+00  7.330E-04  1.028E-03  4.604E-04
   1    4   40     1    40    4.1417E+00  1.4879E-03   4.1402E+00  0.000E+00  0.000E+00  0.000E+00  1.29680E+02  1.530E+00  3.643E+00  7.329E-04  1.016E-03  4.718E-04
   1    4   41     1    41    4.1402E+00  1.4875E-03   4.1387E+00  0.000E+00  0.000E+00  0.000E+00  1.29380E+02  1.530E+00  3.643E+00  7.328E-04  1.018E-03  4.701E-04
   1    4   42     1    42    4.1387E+00  1.4871E-03   4.1372E+00  0.000E+00  0.000E+00  0.000E+00  1.29080E+02  1.530E+00  3.642E+00  7.327E-04  1.019E-03  4.679E-04
   1    4   43     1    43    4.1372E+00  1.4867E-03   4.1357E+00  0.000E+00  0.000E+00  0.000E+00  1.28779E+02  1.529E+00  3.642E+00  7.327E-04  1.022E-03  4.650E-04
   1    4   44     1    44    4.1357E+00  1.4863E-03   4.1342E+00  0.000E+00  0.000E+00  0.000E+00  1.28479E+02  1.529E+00  3.642E+00  7.326E-04  1.025E-03  4.615E-04
   1    4   45     1    45    4.1342E+00  1.4859E-03   4.1327E+00  0.000E+00  0.000E+00  0.000E+00  1.28179E+02  1.529E+00  3.641E+00  7.325E-04  1.029E-03  4.571E-04
   1    4   46     1    46    4.1327E+00  1.4855E-03   4.1313E+00  0.000E+00  0.000E+00  0.000E+00  1.27878E+02  1.528E+00  3.641E+00  7.324E-04  1.036E-03  4.502E-04
   1    4   47     1    47    4.1313E+00  1.4851E-03   4.1298E+00  0.000E+00  0.000E+00  0.000E+00  1.27578E+02  1.528E+00  3.641E+00  7.323E-04  8.161E-04  6.692E-04
   1    4   48     1    48    4.1298E+00  1.4847E-03   4.1283E+00  0.000E+00  0.000E+00  0.000E+00  1.27278E+02  1.528E+00  3.640E+00  7.322E-04  5.463E-04  9.387E-04
   1    4   49     1    49    4.1283E+00  1.4843E-03   4.1268E+00  0.000E+00  0.000E+00  0.000E+00  1.26978E+02  1.528E+00  3.640E+00  7.321E-04  5.496E-04  9.350E-04
   1    4   50     1    50    4.1268E+00  1.4839E-03   4.1253E+00  0.000E+00  0.000E+00  0.000E+00  1.26677E+02  1.527E+00  3.640E+00  7.320E-04  5.941E-04  8.900E-04
   1    4   51     1    51    4.1253E+00  1.4835E-03   4.1238E+00  0.000E+00  0.000E+00  0.000E+00  1.26377E+02  1.527E+00  3.639E+00  7.319E-04  6.021E-04  8.817E-04
   1    4   52     1    52    4.1238E+00  1.4831E-03   4.1223E+00  0.000E+00  0.000E+00  0.000E+00  1.26077E+02  1.527E+00  3.639E+00  7.318E-04  6.054E-04  8.779E-04
   1    4   53     1    53    4.1223E+00  1.4827E-03   4.1209E+00  0.000E+00  0.000E+00  0.000E+00  1.25776E+02  1.526E+00  3.639E+00  7.317E-04  6.047E-04  8.783E-04
   1    4   54     1    54    4.1209E+00  1.4823E-03   4.1194E+00  0.000E+00  0.000E+00  0.000E+00  1.25476E+02  1.526E+00  3.638E+00  7.316E-04  6.005E-04  8.821E-04
   1    4   55     1    55    4.1194E+00  1.4819E-03   4.1179E+00  0.000E+00  0.000E+00  0.000E+00  1.25176E+02  1.526E+00  3.638E+00  7.315E-04  5.924E-04  8.898E-04
   1    4   56     1    56    4.1179E+00  1.4816E-03   4.1164E+00  0.000E+00  0.000E+00  0.000E+00  1.24876E+02  1.526E+00  3.638E+00  7.314E-04  5.885E-04  8.933E-04
   1    4   57     1    57    4.1164E+00  1.4812E-03   4.1149E+00  0.000E+00  0.000E+00  0.000E+00  1.24575E+02  1.525E+00  3.637E+00  7.313E-04  5.454E-04  9.360E-04
   1    4   58     1    58    4.1149E+00  1.4808E-03   4.1135E+00  0.000E+00  0.000E+00  0.000E+00  1.24275E+02  1.525E+00  3.637E+00  7.313E-04  7.475E-04  7.334E-04
   1    4   59     1    59    4.1135E+00  1.4804E-03   4.1120E+00  0.000E+00  0.000E+00  0.000E+00  1.23975E+02  1.525E+00  3.637E+00  7.312E-04  1.036E-03  4.447E-04
   1    4   60     1    60    4.1120E+00  1.4800E-03   4.1105E+00  0.000E+00  0.000E+00  0.000E+00  1.23674E+02  1.524E+00  3.636E+00  7.311E-04  1.029E-03  4.507E-04
   1    4   61     1    61    4.1105E+00  1.4796E-03   4.1090E+00  0.000E+00  0.000E+00  0.000E+00  1.23374E+02  1.524E+00  3.636E+00  7.310E-04  1.025E-03  4.545E-04
   1    4   62     1    62    4.1090E+00  1.4792E-03   4.1075E+00  0.000E+00  0.000E+00  0.000E+00  1.23074E+02  1.524E+00  3.636E+00  7.309E-04  1.022E-03  4.570E-04
   1    4   63     1    63    4.1075E+00  1.4788E-03   4.1061E+00  0.000E+00  0.000E+00  0.000E+00  1.22774E+02  1.524E+00  3.635E+00  7.308E-04  1.020E-03  4.588E-04
   1    4   64     1    64    4.1061E+00  1.4784E-03   4.1046E+00  0.000E+00  0.000E+00  0.000E+00  1.22473E+02  1.523E+00  3.635E+00  7.307E-04  1.018E-03  4.601E-04
   1    4   65     1    65    4.1046E+00  1.4780E-03   4.1031E+00  0.000E+00  0.000E+00  0.000E+00  1.22173E+02  1.523E+00  3.635E+00  7.306E-04  1.017E-03  4.608E-04
   1    4   66     1    66    4.1031E+00  1.4776E-03   4.1016E+00  0.000E+00  0.000E+00  0.000E+00  1.21873E+02  1.523E+00  3.634E+00  7.305E-04  1.095E-03  3.830E-04
   1    4   67     1    67    4.1016E+00  1.4772E-03   4.1001E+00  0.000E+00  0.000E+00  0.000E+00  1.21572E+02  1.522E+00  3.634E+00  7.304E-04  1.249E-03  2.284E-04
   1    4   68     1    68    4.1001E+00  1.4768E-03   4.0987E+00  0.000E+00  0.000E+00  0.000E+00  1.21272E+02  1.522E+00  3.634E+00  7.303E-04  1.396E-03  8.054E-05
   1    4   69     1    69    4.0987E+00  1.4764E-03   4.0972E+00  0.000E+00  0.000E+00  0.000E+00  1.20972E+02  1.522E+00  3.633E+00  7.302E-04  1.537E-03 -6.089E-05
   1    4   70     1    70    4.0972E+00  1.4760E-03   4.0957E+00  0.000E+00  0.000E+00  0.000E+00  1.20672E+02  1.522E+00  3.633E+00  7.301E-04  1.592E-03 -1.156E-04
   1    4   71     1    71    4.0957E+00  1.4756E-03   4.0942E+00  0.000E+00  0.000E+00  0.000E+00  1.20371E+02  1.521E+00  3.633E+00  7.300E-04  1.590E-03 -1.146E-04
   1    4   72     1    72    4.0942E+00  1.4752E-03   4.0928E+00  0.000E+00  0.000E+00  0.000E+00  1.20071E+02  1.521E+00  3.632E+00  7.300E-04  1.589E-03 -1.135E-04
   1    4   73     1    73    4.0928E+00  1.4748E-03   4.0913E+00  0.000E+00  0.000E+00  0.000E+00  1.19771E+02  1.521E+00  3.632E+00  7.299E-04  1.588E-03 -1.126E-04
   1    4   74     1    74    4.0913E+00  1.4744E-03   4.0898E+00  0.000E+00  0.000E+00  0.000E+00  1.19470E+02  1.520E+00  3.632E+00  7.298E-04  1.586E-03 -1.121E-04
   1    4   75     1    75    4.0898E+00  1.4740E-03   4.0883E+00  0.000E+00  0.000E+00  0.000E+00  1.19170E+02  1.520E+00  3.631E+00  7.297E-04  1.585E-03 -1.110E-04
   1    4   76     1    76    4.0883E+00  1.4736E-03   4.0869E+00  0.000E+00  0.000E+00  0.000E+00  1.18870E+02  1.520E+00  3.631E+00  7.296E-04  1.580E-03 -1.060E-04
   1    4   77     1    77    4.0869E+00  1.4732E-03   4.0854E+00  0.000E+00  0.000E+00  0.000E+00  1.18570E+02  1.520E+00  3.631E+00  7.295E-04  1.579E-03 -1.055E-04
   1    4   78     1    78    4.0854E+00  1.4728E-03   4.0839E+00  0.000E+00  0.000E+00  0.000E+00  1.18269E+02  1.519E+00  3.630E+00  7.294E-04  1.531E-03 -5.780E-05
   1    4   79     1    79    4.0839E+00  1.4724E-03   4.0825E+00  0.000E+00  0.000E+00  0.000E+00  1.17969E+02  1.519E+00  3.630E+00  7.293E-04  1.530E-03 -5.797E-05
   1    4   80     1    80    4.0825E+00  1.4721E-03   4.0810E+00  0.000E+00  0.000E+00  0.000E+00  1.17669E+02  1.519E+00  3.630E+00  7.292E-04  1.530E-03 -5.815E-05
   1    4   81     1    81    4.0810E+00  1.4717E-03   4.0795E+00  0.000E+00  0.000E+00  0.000E+00  1.17368E+02  1.518E+00  3.629E+00  7.291E-04  1.530E-03 -5.837E-05
   1    4   82     1    82    4.0795E+00  1.4713E-03   4.0780E+00  0.000E+00  0.000E+00  0.000E+00  1.17068E+02  1.518E+00  3.629E+00  7.290E-04  1.525E-03 -5.366E-05
   1    4   83     1    83    4.0780E+00  1.4709E-03   4.0766E+00  0.000E+00  0.000E+00  0.000E+00  1.16768E+02  1.518E+00  3.628E+00  7.289E-04  1.522E-03 -5.150E-05
   1    4   84     1    84    4.0766E+00  1.4705E-03   4.0751E+00  0.000E+00  0.000E+00  0.000E+00  1.16468E+02  1.518E+00  3.628E+00  7.288E-04  1.514E-03 -4.323E-05
   1    4   85     1    85    4.0751E+00  1.4701E-03   4.0736E+00  0.000E+00  0.000E+00  0.000E+00  1.16167E+02  1.517E+00  3.628E+00  7.287E-04  1.513E-03 -4.261E-05
   1    4   86     1    86    4.0736E+00  1.4697E-03   4.0722E+00  0.000E+00  0.000E+00  0.000E+00  1.15867E+02  1.517E+00  3.627E+00  7.287E-04  1.513E-03 -4.320E-05
   1    4   87     1    87    4.0722E+00  1.4693E-03   4.0707E+00  0.000E+00  0.000E+00  0.000E+00  1.15567E+02  1.517E+00  3.627E+00  7.286E-04  1.513E-03 -4.330E-05
   1    4   88     1    88    4.0707E+00  1.4689E-03   4.0692E+00  0.000E+00  0.000E+00  0.000E+00  1.15266E+02  1.516E+00  3.627E+00  7.285E-04  1.513E-03 -4.392E-05
   1    4   89     1    89    4.0692E+00  1.4685E-03   4.0677E+00  0.000E+00  0.000E+00  0.000E+00  1.14966E+02  1.516E+00  3.626E+00  7.284E-04  1.514E-03 -4.526E-05
   1    4   90     1    90    4.0677E+00  1.4681E-03   4.0663E+00  0.000E+00  0.000E+00  0.000E+00  1.14666E+02  1.516E+00  3.626E+00  7.283E-04  1.514E-03 -4.600E-05
   1    4   91     1    91    4.0663E+00  1.4677E-03   4.0648E+00  0.000E+00  0.000E+00  0.000E+00  1.14366E+02  1.516E+00  3.626E+00  7.282E-04  1.514E-03 -4.651E-05
   1    4   92     1    92    4.0648E+00  1.4673E-03   4.0633E+00  0.000E+00  0.000E+00  0.000E+00  1.14065E+02  1.515E+00  3.625E+00  7.281E-04  1.509E-03 -4.125E-05
   1    4   93     1    93    4.0633E+00  1.4669E-03   4.0619E+00  0.000E+00  0.000E+00  0.000E+00  1.13765E+02  1.515E+00  3.625E+00  7.280E-04  1.507E-03 -4.023E-05
   1    4   94     1    94    4.0619E+00  1.4665E-03   4.0604E+00  0.000E+00  0.000E+00  0.000E+00  1.13465E+02  1.515E+00  3.625E+00  7.279E-04  1.507E-03 -4.091E-05
   1    4   95     1    95    4.0604E+00  1.4661E-03   4.0589E+00  0.000E+00  0.000E+00  0.000E+00  1.13164E+02  1.514E+00  3.624E+00  7.278E-04  1.508E-03 -4.149E-05
   1    4   96     1    96    4.0589E+00  1.4658E-03   4.0575E+00  0.000E+00  0.000E+00  0.000E+00  1.12864E+02  1.514E+00  3.624E+00  7.277E-04  1.508E-03 -4.195E-05
   1    4   97     1    97    4.0575E+00  1.4654E-03   4.0560E+00  0.000E+00  0.000E+00  0.000E+00  1.12564E+02  1.514E+00  3.624E+00  7.276E-04  1.508E-03 -4.229E-05
   1    4   98     1    98    4.0560E+00  1.4650E-03   4.0546E+00  0.000E+00  0.000E+00  0.000E+00  1.12264E+02  1.514E+00  3.623E+00  7.275E-04  1.507E-03 -4.251E-05
   1    4   99     1    99    4.0546E+00  1.4646E-03   4.0531E+00  0.000E+00  0.000E+00  0.000E+00  1.11963E+02  1.513E+00  3.623E+00  7.275E-04  1.507E-03 -4.263E-05
   1    4  100     1   100    4.0531E+00  1.4642E-03   4.0516E+00  0.000E+00  0.000E+00  0.000E+00  1.11663E+02  1.513E+00  3.623E+00  7.274E-04  1.507E-03 -4.270E-05



1
  VOLUMETRIC BUDGET FOR UNSATURATED ZONE BENEATH STREAMS AT END OF TIME STEP    30 STRESS PERIOD  48
  ------------------------------------------------------------------------------------------------

    CUMULATIVE VOLUMES             L**3    RATES FOR THIS TIME STEP         L**3/T
    ------------------                     ------------------------


          STREAM LOSS =     35583000.0000            STREAM LOSS =            0.1484
    CHANGE IN STORAGE =      1475586.2500      CHANGE IN STORAGE =        1.5059E-02
       RECHARGE TO GW =     34115476.0000         RECHARGE TO GW =            0.1333

             TOTAL IN =     35583000.0000               TOTAL IN =            0.1484

            TOTAL OUT =     35591064.0000              TOTAL OUT =            0.1484

             IN - OUT =        -8064.0000               IN - OUT =       -7.9721E-06

  PERCENT DISCREPANCY =           -0.01      PERCENT DISCREPANCY =            -0.00



1
  VOLUMETRIC BUDGET FOR ENTIRE MODEL AT END OF TIME STEP   30, STRESS PERIOD  48
  ------------------------------------------------------------------------------

     CUMULATIVE VOLUMES      L**3       RATES FOR THIS TIME STEP      L**3/T
     ------------------                 ------------------------

           IN:                                      IN:
           ---                                      ---
             STORAGE     =   116698600.0000               STORAGE     =           0.2672
       CONSTANT HEAD     =           0.0000         CONSTANT HEAD     =           0.0000
               WELLS     =           0.0000                 WELLS     =           0.0000
     HEAD DEP BOUNDS     =     3625690.2500       HEAD DEP BOUNDS     =       9.5730E-02
      STREAM LEAKAGE     =    34115360.0000        STREAM LEAKAGE     =           0.1333

                TOTAL IN =   154439648.0000                  TOTAL IN =           0.4962

          OUT:                                     OUT:
          ----                                     ----
             STORAGE     =     3696530.0000               STORAGE     =       5.7764E-03
       CONSTANT HEAD     =           0.0000         CONSTANT HEAD     =           0.0000
               WELLS     =   134357248.0000                 WELLS     =           0.4905
     HEAD DEP BOUNDS     =    16385952.0000       HEAD DEP BOUNDS     =           0.0000
      STREAM LEAKAGE     =           0.0000        STREAM LEAKAGE     =           0.0000

               TOTAL OUT =   154439728.0000                 TOTAL OUT =           0.4962

                IN - OUT =         -80.0000                  IN - OUT =           0.0000

     PERCENT DISCREPANCY =          -0.00         PERCENT DISCREPANCY =           0.00






         TIME SUMMARY AT END OF TIME STEP   30 IN STRESS PERIOD   48
                    SECONDS     MINUTES      HOURS       DAYS        YEARS
                    -----------------------------------------------------------
   TIME STEP LENGTH 2.49961E+05  4166.0      69.434      2.8931     7.92080E-03
 STRESS PERIOD TIME 2.59200E+06  43200.      720.00      30.000     8.21355E-02
         TOTAL TIME 1.24416E+08 2.07360E+06  34560.      1440.0      3.9425    
1
1
                            STRESS PERIOD NO.   49, LENGTH =   2592000.    
                            -----------------------------------------------

                              NUMBER OF TIME STEPS =    30

                               MULTIPLIER FOR DELT =     1.100

                            INITIAL TIME STEP SIZE =   15757.40    

 REUSING NON-PARAMETER WELLS FROM LAST STRESS PERIOD

      1 WELL 

 REUSING NON-PARAMETER GHB CELLS FROM LAST STRESS PERIOD

      7 GHB CELLS



 CLASSIFICATION & COUNT OF STREAM SEGMENTS BASED ON SOURCE OF INFLOW:

                HEADWATER     DIVERSION     RECEIVES TRIBUTARY FLOW
                ---------     ---------     -----------------------
                     1              0               0



                    INPUT DATA FOR EACH STREAM SEGMENT
 ---------------------------------------------------------------------------------------------

 SEGMENT    SEG.     INFLOW   OVERLAND   STREAM    STREAM   ICALC  OUTFLOW  DIVERSION PRIORITY
    NO.    LENGTH     RATE     RUNOFF      ET       PPT.    METH.  TO SEG.  FROM SEG.    NO.

      1  2.000E+04 0.000E+00 0.000E+00 0.000E+00 0.000E+00    2        0        0        0


         STREAMBED PROPERTIES AND STREAM DIMENSIONS

 SEGMENT     BED HYD. COND.      BED THICKNESS     ELEV.-TOP OF BED     WIDTH OF STREAM     DEPTH OF STREAM    STREAM ROUGHNESS
    No.     UPPER     LOWER     UPPER     LOWER     UPPER     LOWER     UPPER     LOWER     UPPER     LOWER   CHANNEL      BANK

     1  3.500E-07 3.500E-07                                                                                 3.000E-02 4.000E-02

  EIGHT POINT CROSS-SECTION DATA FOR SEGMENTS WITH ICALC = 2
    X VALUES X VALUES START FROM LEFT SIDE LOOKING DOWNSTREAM

     SEGMENT NO.        X1        X2        X3        X4        X5        X6        X7        X8
            1      0.000E+00 2.000E+00 4.000E+00 6.000E+00 8.000E+00 1.000E+01 1.200E+01 1.400E+01

    Z VALUES ARE RELATIVE TO STREAMBED ELEVATION

     SEGMENT NO.          Z1        Z2        Z3        Z4        Z5        Z6        Z7        Z8
            1      6.000E+00 4.500E+00 3.500E+00 0.000E+00 3.000E-01 3.500E+00 4.500E+00 6.000E+00



 
 SOLVING FOR HEAD 
                                                   Max.-Head-Change                         Max.-Flux-Residual
  Residual-Control   Outer-Iter.   Inner-Iter.     Column Row Layer    Maximum-Head-Change  Column Row Layer    Maximum-Flux-Residual          L2-NORM 
          0                 1           2            50    3     1       0.1425474604E+00      50    3    1         0.4421407431E-01      0.5768291361E-01
          0                 2           2            50    3     1      -0.1409257618E-01      50    3    1        -0.4444921220E-02      0.5806883234E-02
          0                 3           2            50    3     1       0.1253918966E-02      50    3    1         0.3998800505E-03      0.5230370111E-03
          0                 4           1            50    3     1      -0.9948550096E-04      50    3    1        -0.3203165129E-04      0.4194290761E-04
          0                 5           1            50    3     1       0.6929882268E-05      50    3    1         0.2251785296E-05      0.2950381222E-05
          0                 6           1            50    3     1      -0.4161198262E-06      50    3    1        -0.1364492689E-06      0.1788374123E-06

    ------------------------------------------------
       NWT REQUIRED            6 OUTER ITERATIONS 
       AND A TOTAL OF          9 INNER ITERATIONS.
    ------------------------------------------------

 NO OUTPUT CONTROL FOR STRESS PERIOD   49   TIME STEP    1
 
 WELLS WITH REDUCED PUMPING FOR STRESS PERIOD    49 TIME STEP     1
   LAY   ROW   COL         APPL.Q          ACT.Q        GW-HEAD       CELL-BOT
     1     3    50  -0.520086E+00  -0.239190E+00   0.530034E+01   0.000000E+00
     1     5    55  -0.520086E+00  -0.188298E+00   0.451726E+01   0.000000E+00
 
 
 SOLVING FOR HEAD 
                                                   Max.-Head-Change                         Max.-Flux-Residual
  Residual-Control   Outer-Iter.   Inner-Iter.     Column Row Layer    Maximum-Head-Change  Column Row Layer    Maximum-Flux-Residual          L2-NORM 
          0                 1           2            50    3     1       0.1034778678E+00      50    3    1         0.2961285757E-01      0.4016474222E-01
          0                 2           2            50    3     1      -0.1013990447E-01      50    3    1        -0.2974041615E-02      0.4022176731E-02
          0                 3           2            50    3     1       0.8998777231E-03      50    3    1         0.2675800896E-03      0.3628888829E-03
          0                 4           1            50    3     1      -0.7134356111E-04      50    3    1        -0.2143376527E-04      0.2914252277E-04
          0                 5           1            50    3     1       0.4968970286E-05      50    3    1         0.1506767300E-05      0.2051873345E-05
          0                 6           1            50    3     1      -0.2983704667E-06      50    3    1        -0.9130403816E-07      0.1244369231E-06

    ------------------------------------------------
       NWT REQUIRED            6 OUTER ITERATIONS 
       AND A TOTAL OF          9 INNER ITERATIONS.
    ------------------------------------------------

 NO OUTPUT CONTROL FOR STRESS PERIOD   49   TIME STEP    2
 
 WELLS WITH REDUCED PUMPING FOR STRESS PERIOD    49 TIME STEP     2
   LAY   ROW   COL         APPL.Q          ACT.Q        GW-HEAD       CELL-BOT
     1     3    50  -0.520086E+00  -0.245736E+00   0.539451E+01   0.000000E+00
     1     5    55  -0.520086E+00  -0.193534E+00   0.459423E+01   0.000000E+00
 
 
 SOLVING FOR HEAD 
                                                   Max.-Head-Change                         Max.-Flux-Residual
  Residual-Control   Outer-Iter.   Inner-Iter.     Column Row Layer    Maximum-Head-Change  Column Row Layer    Maximum-Flux-Residual          L2-NORM 
          0                 1           2            50    3     1       0.7466645666E-01      50    3    1         0.1963119334E-01      0.2875750084E-01
          0                 2           2            50    3     1      -0.7244166875E-02      50    3    1        -0.1970105372E-02      0.2852486658E-02
          0                 3           2            50    3     1       0.6406332561E-03      50    3    1         0.1772634691E-03      0.2579661069E-03
          0                 4           1            50    3     1      -0.5073470045E-04      50    3    1        -0.1419911188E-04      0.2077569311E-04
          0                 5           1            50    3     1       0.3532780410E-05      50    3    1         0.9981783253E-06      0.1465735039E-05
          0                 6           1            50    3     1      -0.2121272008E-06      50    3    1        -0.6048544421E-07      0.8899431016E-07

    ------------------------------------------------
       NWT REQUIRED            6 OUTER ITERATIONS 
       AND A TOTAL OF          9 INNER ITERATIONS.
    ------------------------------------------------

 NO OUTPUT CONTROL FOR STRESS PERIOD   49   TIME STEP    3
 
 WELLS WITH REDUCED PUMPING FOR STRESS PERIOD    49 TIME STEP     3
   LAY   ROW   COL         APPL.Q          ACT.Q        GW-HEAD       CELL-BOT
     1     3    50  -0.519933E+00  -0.250396E+00   0.546253E+01   0.000000E+00
     1     5    55  -0.519933E+00  -0.197325E+00   0.465057E+01   0.000000E+00
 
 
 SOLVING FOR HEAD 
                                                   Max.-Head-Change                         Max.-Flux-Residual
  Residual-Control   Outer-Iter.   Inner-Iter.     Column Row Layer    Maximum-Head-Change  Column Row Layer    Maximum-Flux-Residual          L2-NORM 
          0                 1           2            50    3     1       0.5321402322E-01      50    3    1         0.1277550624E-01      0.2157992848E-01
          0                 2           2            50    3     1      -0.5104071473E-02      50    3    1        -0.1281196628E-02      0.2114769396E-02
          0                 3           2            50    3     1       0.4492988778E-03      50    3    1         0.1152824437E-03      0.1919185263E-03
          0                 4           1            50    3     1      -0.3552562875E-04      50    3    1        -0.9234283626E-05      0.1553305176E-04
          0                 5           1            50    3     1       0.2472766694E-05      50    3    1         0.6491547744E-06      0.1100003711E-05
          0                 6           1            50    3     1      -0.1484704065E-06      50    3    1        -0.3933587833E-07      0.6694420535E-07

    ------------------------------------------------
       NWT REQUIRED            6 OUTER ITERATIONS 
       AND A TOTAL OF          9 INNER ITERATIONS.
    ------------------------------------------------

 NO OUTPUT CONTROL FOR STRESS PERIOD   49   TIME STEP    4
 
 WELLS WITH REDUCED PUMPING FOR STRESS PERIOD    49 TIME STEP     4
   LAY   ROW   COL         APPL.Q          ACT.Q        GW-HEAD       CELL-BOT
     1     3    50  -0.520072E+00  -0.253841E+00   0.551105E+01   0.000000E+00
     1     5    55  -0.520072E+00  -0.200158E+00   0.469116E+01   0.000000E+00
 
 
 SOLVING FOR HEAD 
                                                   Max.-Head-Change                         Max.-Flux-Residual
  Residual-Control   Outer-Iter.   Inner-Iter.     Column Row Layer    Maximum-Head-Change  Column Row Layer    Maximum-Flux-Residual          L2-NORM 
          0                 1           2            50    3     1       0.3833500881E-01      50    3    1         0.8347104898E-02      0.1756148254E-01
          0                 2           2            50    3     1      -0.3631490018E-02      50    3    1        -0.8365087017E-03      0.1703683369E-02
          0                 3           2            50    3     1       0.3178891673E-03      50    3    1         0.7527232504E-04      0.1552748052E-03
          0                 4           1            50    3     1      -0.2508178438E-04      50    3    1        -0.6029394159E-05      0.1264964173E-04
          0                 5           1            50    3     1       0.1744768673E-05      50    3    1         0.4238534071E-06      0.9005770900E-06
          0                 6           1            50    3     1      -0.1047489171E-06      50    3    1        -0.2568342528E-07      0.5499858587E-07

    ------------------------------------------------
       NWT REQUIRED            6 OUTER ITERATIONS 
       AND A TOTAL OF          9 INNER ITERATIONS.
    ------------------------------------------------

 NO OUTPUT CONTROL FOR STRESS PERIOD   49   TIME STEP    5
 
 WELLS WITH REDUCED PUMPING FOR STRESS PERIOD    49 TIME STEP     5
   LAY   ROW   COL         APPL.Q          ACT.Q        GW-HEAD       CELL-BOT
     1     3    50  -0.520036E+00  -0.256261E+00   0.554605E+01   0.000000E+00
     1     5    55  -0.520036E+00  -0.202163E+00   0.472056E+01   0.000000E+00
 
 
 SOLVING FOR HEAD 
                                                   Max.-Head-Change                         Max.-Flux-Residual
  Residual-Control   Outer-Iter.   Inner-Iter.     Column Row Layer    Maximum-Head-Change  Column Row Layer    Maximum-Flux-Residual          L2-NORM 
          0                 1           2            50    3     1       0.2803165617E-01      50    3    1         0.5493616785E-02      0.1541993216E-01
          0                 2           2            50    3     1      -0.2621312296E-02      50    3    1        -0.5501531654E-03      0.1489455640E-02
          0                 3           2            50    3     1       0.2279800490E-03      50    3    1         0.4950719146E-04      0.1363305640E-03
          0                 4           1            50    3     1      -0.1793882643E-04      50    3    1        -0.3965562734E-05      0.1117958654E-04
          0                 5           1            50    3     1       0.1246788083E-05      50    3    1         0.2787677655E-06      0.8004664098E-06
          0                 6           1            50    3     1      -0.7483853453E-07      50    3    1        -0.1689176826E-07      0.4908063713E-07

    ------------------------------------------------
       NWT REQUIRED            6 OUTER ITERATIONS 
       AND A TOTAL OF          9 INNER ITERATIONS.
    ------------------------------------------------

 NO OUTPUT CONTROL FOR STRESS PERIOD   49   TIME STEP    6
 
 WELLS WITH REDUCED PUMPING FOR STRESS PERIOD    49 TIME STEP     6
   LAY   ROW   COL         APPL.Q          ACT.Q        GW-HEAD       CELL-BOT
     1     3    50  -0.519970E+00  -0.258012E+00   0.557167E+01   0.000000E+00
     1     5    55  -0.519970E+00  -0.203617E+00   0.474209E+01   0.000000E+00
 
 
 SOLVING FOR HEAD 
                                                   Max.-Head-Change                         Max.-Flux-Residual
  Residual-Control   Outer-Iter.   Inner-Iter.     Column Row Layer    Maximum-Head-Change  Column Row Layer    Maximum-Flux-Residual          L2-NORM 
          0                 1           2            50    3     1       0.2086760487E-01      50    3    1         0.3649452614E-02      0.1429748019E-01
          0                 2           2            50    3     1      -0.1926051490E-02      50    3    1        -0.3652066316E-03      0.1381351982E-02
          0                 3           2            50    2     1       0.1663937873E-03      50    3    1         0.3286593956E-04      0.1268503695E-03
          0                 4           1            50    2     1      -0.1319126663E-04      50    3    1        -0.2632573699E-05      0.1045891649E-04
          0                 5           1            50    2     1       0.9186014569E-06      50    3    1         0.1850597242E-06      0.7527897618E-06

    ------------------------------------------------
       NWT REQUIRED            5 OUTER ITERATIONS 
       AND A TOTAL OF          8 INNER ITERATIONS.
    ------------------------------------------------

 NO OUTPUT CONTROL FOR STRESS PERIOD   49   TIME STEP    7
 
 WELLS WITH REDUCED PUMPING FOR STRESS PERIOD    49 TIME STEP     7
   LAY   ROW   COL         APPL.Q          ACT.Q        GW-HEAD       CELL-BOT
     1     3    50  -0.519940E+00  -0.259327E+00   0.559077E+01   0.000000E+00
     1     5    55  -0.519940E+00  -0.204705E+00   0.475807E+01   0.000000E+00
 
 
 SOLVING FOR HEAD 
                                                   Max.-Head-Change                         Max.-Flux-Residual
  Residual-Control   Outer-Iter.   Inner-Iter.     Column Row Layer    Maximum-Head-Change  Column Row Layer    Maximum-Flux-Residual          L2-NORM 
          0                 1           2            50    2     1       0.1777912799E-01      50    3    1         0.2455887046E-02      0.1367588799E-01
          0                 2           2            50    2     1      -0.1749035320E-02      50    3    1        -0.2455859554E-03      0.1323310351E-02
          0                 3           2            50    2     1       0.1554129215E-03      50    3    1         0.2210223811E-04      0.1218772670E-03
          0                 4           1            50    2     1      -0.1231854550E-04      50    3    1        -0.1770387935E-05      0.1009721004E-04
          0                 5           1            50    2     1       0.8577478833E-06      50    3    1         0.1244485586E-06      0.7302615407E-06

    ------------------------------------------------
       NWT REQUIRED            5 OUTER ITERATIONS 
       AND A TOTAL OF          8 INNER ITERATIONS.
    ------------------------------------------------

 NO OUTPUT CONTROL FOR STRESS PERIOD   49   TIME STEP    8
 
 WELLS WITH REDUCED PUMPING FOR STRESS PERIOD    49 TIME STEP     8
   LAY   ROW   COL         APPL.Q          ACT.Q        GW-HEAD       CELL-BOT
     1     3    50  -0.519954E+00  -0.260347E+00   0.560532E+01   0.000000E+00
     1     5    55  -0.519954E+00  -0.205543E+00   0.477016E+01   0.000000E+00
 
 
 SOLVING FOR HEAD 
                                                   Max.-Head-Change                         Max.-Flux-Residual
  Residual-Control   Outer-Iter.   Inner-Iter.     Column Row Layer    Maximum-Head-Change  Column Row Layer    Maximum-Flux-Residual          L2-NORM 
          0                 1           2            50    2     1       0.1646090960E-01      50    2    1         0.1896227286E-02      0.1333369462E-01
          0                 2           2            50    2     1      -0.1619143288E-02      50    2    1        -0.1898746482E-03      0.1292993672E-02
          0                 3           2            50    2     1       0.1438260988E-03      50    2    1         0.1708599816E-04      0.1193403621E-03
          0                 4           1            50    2     1      -0.1139778868E-04      50    2    1        -0.1368611325E-05      0.9924881737E-05
          0                 5           1            50    2     1       0.7935442294E-06      50    2    1         0.9621190394E-07      0.7208347999E-06

    ------------------------------------------------
       NWT REQUIRED            5 OUTER ITERATIONS 
       AND A TOTAL OF          8 INNER ITERATIONS.
    ------------------------------------------------

 NO OUTPUT CONTROL FOR STRESS PERIOD   49   TIME STEP    9
 
 WELLS WITH REDUCED PUMPING FOR STRESS PERIOD    49 TIME STEP     9
   LAY   ROW   COL         APPL.Q          ACT.Q        GW-HEAD       CELL-BOT
     1     3    50  -0.519978E+00  -0.261155E+00   0.561674E+01   0.000000E+00
     1     5    55  -0.519978E+00  -0.206202E+00   0.477958E+01   0.000000E+00
 
 
 SOLVING FOR HEAD 
                                                   Max.-Head-Change                         Max.-Flux-Residual
  Residual-Control   Outer-Iter.   Inner-Iter.     Column Row Layer    Maximum-Head-Change  Column Row Layer    Maximum-Flux-Residual          L2-NORM 
          0                 1           2            50    2     1       0.1521257608E-01      50    2    1         0.1596046531E-02      0.1311339475E-01
          0                 2           2            50    2     1      -0.1495866976E-02      50    2    1        -0.1598299578E-03      0.1273135236E-02
          0                 3           2            50    2     1       0.1328289456E-03      50    2    1         0.1438229011E-04      0.1177296602E-03
          0                 4           1            50    2     1      -0.1052373757E-04      50    2    1        -0.1152041588E-05      0.9826878226E-05
          0                 5           1            50    2     1       0.7325854458E-06      50    2    1         0.8098727877E-07      0.7167078864E-06

    ------------------------------------------------
       NWT REQUIRED            5 OUTER ITERATIONS 
       AND A TOTAL OF          8 INNER ITERATIONS.
    ------------------------------------------------

 NO OUTPUT CONTROL FOR STRESS PERIOD   49   TIME STEP   10
 
 WELLS WITH REDUCED PUMPING FOR STRESS PERIOD    49 TIME STEP    10
   LAY   ROW   COL         APPL.Q          ACT.Q        GW-HEAD       CELL-BOT
     1     3    50  -0.519956E+00  -0.261800E+00   0.562616E+01   0.000000E+00
     1     5    55  -0.519956E+00  -0.206724E+00   0.478729E+01   0.000000E+00
 
 
 SOLVING FOR HEAD 
                                                   Max.-Head-Change                         Max.-Flux-Residual
  Residual-Control   Outer-Iter.   Inner-Iter.     Column Row Layer    Maximum-Head-Change  Column Row Layer    Maximum-Flux-Residual          L2-NORM 
          0                 1           2            50    2     1       0.1405692863E-01      50    2    1         0.1340955892E-02      0.1296031766E-01
          0                 2           2            50    2     1      -0.1381613594E-02      50    2    1        -0.1342865040E-03      0.1259561861E-02
          0                 3           2            50    2     1       0.1226343651E-03      50    2    1         0.1208375821E-04      0.1166473404E-03
          0                 4           1            50    2     1      -0.9713280683E-05      50    2    1        -0.9679259867E-06      0.9768349602E-05
          0                 5           1            50    2     1       0.6760459597E-06      50    2    1         0.6804415109E-07      0.7153024234E-06

    ------------------------------------------------
       NWT REQUIRED            5 OUTER ITERATIONS 
       AND A TOTAL OF          8 INNER ITERATIONS.
    ------------------------------------------------

 NO OUTPUT CONTROL FOR STRESS PERIOD   49   TIME STEP   11
 
 WELLS WITH REDUCED PUMPING FOR STRESS PERIOD    49 TIME STEP    11
   LAY   ROW   COL         APPL.Q          ACT.Q        GW-HEAD       CELL-BOT
     1     3    50  -0.520017E+00  -0.262373E+00   0.563395E+01   0.000000E+00
     1     5    55  -0.520017E+00  -0.207186E+00   0.479364E+01   0.000000E+00
 
 
 SOLVING FOR HEAD 
                                                   Max.-Head-Change                         Max.-Flux-Residual
  Residual-Control   Outer-Iter.   Inner-Iter.     Column Row Layer    Maximum-Head-Change  Column Row Layer    Maximum-Flux-Residual          L2-NORM 
          0                 1           2            50    1     1       0.1341458794E-01      50    2    1         0.1126489758E-02      0.1285231417E-01
          0                 2           2            50    1     1      -0.1327142753E-02      50    2    1        -0.1127993740E-03      0.1249226640E-02
          0                 3           2            50    1     1       0.1182275607E-03      50    2    1         0.1015034323E-04      0.1158336066E-03
          0                 4           1            50    1     1      -0.9379313054E-05      50    2    1        -0.8130559157E-06      0.9730741600E-05
          0                 5           1            50    1     1       0.6530536598E-06      14    4    1         0.5955200777E-07      0.7153887395E-06

    ------------------------------------------------
       NWT REQUIRED            5 OUTER ITERATIONS 
       AND A TOTAL OF          8 INNER ITERATIONS.
    ------------------------------------------------

 NO OUTPUT CONTROL FOR STRESS PERIOD   49   TIME STEP   12
 
 WELLS WITH REDUCED PUMPING FOR STRESS PERIOD    49 TIME STEP    12
   LAY   ROW   COL         APPL.Q          ACT.Q        GW-HEAD       CELL-BOT
     1     3    50  -0.520026E+00  -0.262854E+00   0.564078E+01   0.000000E+00
     1     5    55  -0.520026E+00  -0.207572E+00   0.479918E+01   0.000000E+00
 
 
 SOLVING FOR HEAD 
                                                   Max.-Head-Change                         Max.-Flux-Residual
  Residual-Control   Outer-Iter.   Inner-Iter.     Column Row Layer    Maximum-Head-Change  Column Row Layer    Maximum-Flux-Residual          L2-NORM 
          0                 1           2            50    1     1       0.1328766820E-01      50    1    1         0.9766797852E-03      0.1279279720E-01
          0                 2           2            50    1     1      -0.1313891712E-02      50    1    1        -0.9772871344E-04      0.1241685602E-02
          0                 3           2            50    1     1       0.1170027962E-03      50    1    1         0.8794965157E-05      0.1152287854E-03
          0                 4           1            50    1     1      -0.9280182340E-05      50    1    1        -0.7044819212E-06      0.9709429163E-05
          0                 5           1            50    1     1       0.6459958357E-06      14    4    1         0.6148072451E-07      0.7166508773E-06

    ------------------------------------------------
       NWT REQUIRED            5 OUTER ITERATIONS 
       AND A TOTAL OF          8 INNER ITERATIONS.
    ------------------------------------------------

 NO OUTPUT CONTROL FOR STRESS PERIOD   49   TIME STEP   13
 
 WELLS WITH REDUCED PUMPING FOR STRESS PERIOD    49 TIME STEP    13
   LAY   ROW   COL         APPL.Q          ACT.Q        GW-HEAD       CELL-BOT
     1     3    50  -0.520026E+00  -0.263290E+00   0.564704E+01   0.000000E+00
     1     5    55  -0.520026E+00  -0.207921E+00   0.480423E+01   0.000000E+00
 
 
 SOLVING FOR HEAD 
                                                   Max.-Head-Change                         Max.-Flux-Residual
  Residual-Control   Outer-Iter.   Inner-Iter.     Column Row Layer    Maximum-Head-Change  Column Row Layer    Maximum-Flux-Residual          L2-NORM 
          0                 1           2             1    1     1      -0.1390902721E-01      50    1    1         0.8795335516E-03      0.1271590552E-01
          0                 2           2             1    1     1       0.1312695268E-02      50    1    1        -0.8801688148E-04      0.1235383333E-02
          0                 3           2            50    1     1       0.1146276743E-03      50    1    1         0.7920873684E-05      0.1148112124E-03
          0                 4           1            50    1     1      -0.9090706609E-05      14    4    1        -0.6873967333E-06      0.9704394673E-05
          0                 5           1            50    1     1       0.6326332250E-06      14    4    1         0.6330056479E-07      0.7190637440E-06

    ------------------------------------------------
       NWT REQUIRED            5 OUTER ITERATIONS 
       AND A TOTAL OF          8 INNER ITERATIONS.
    ------------------------------------------------

 NO OUTPUT CONTROL FOR STRESS PERIOD   49   TIME STEP   14
 
 WELLS WITH REDUCED PUMPING FOR STRESS PERIOD    49 TIME STEP    14
   LAY   ROW   COL         APPL.Q          ACT.Q        GW-HEAD       CELL-BOT
     1     3    50  -0.520011E+00  -0.263690E+00   0.565290E+01   0.000000E+00
     1     5    55  -0.520011E+00  -0.208244E+00   0.480901E+01   0.000000E+00
 
 
 SOLVING FOR HEAD 
                                                   Max.-Head-Change                         Max.-Flux-Residual
  Residual-Control   Outer-Iter.   Inner-Iter.     Column Row Layer    Maximum-Head-Change  Column Row Layer    Maximum-Flux-Residual          L2-NORM 
          0                 1           2             1    1     1      -0.1528960973E-01       1    1    1        -0.8404906023E-03      0.1265919356E-01
          0                 2           2             1    1     1       0.1438989009E-02       1    1    1         0.8404821193E-04      0.1230675002E-02
          0                 3           2             1    1     1      -0.1224264314E-03       1    1    1        -0.7564426863E-05      0.1144981963E-03
          0                 4           1             1    1     1       0.9315164858E-05      14    4    1        -0.7014562406E-06      0.9704943218E-05
          0                 5           1             1    1     1      -0.6249949941E-06      14    4    1         0.6505505290E-07      0.7217274800E-06

    ------------------------------------------------
       NWT REQUIRED            5 OUTER ITERATIONS 
       AND A TOTAL OF          8 INNER ITERATIONS.
    ------------------------------------------------

 NO OUTPUT CONTROL FOR STRESS PERIOD   49   TIME STEP   15
 
 WELLS WITH REDUCED PUMPING FOR STRESS PERIOD    49 TIME STEP    15
   LAY   ROW   COL         APPL.Q          ACT.Q        GW-HEAD       CELL-BOT
     1     3    50  -0.520011E+00  -0.264070E+00   0.565837E+01   0.000000E+00
     1     5    55  -0.520011E+00  -0.208555E+00   0.481351E+01   0.000000E+00
 
 
 SOLVING FOR HEAD 
                                                   Max.-Head-Change                         Max.-Flux-Residual
  Residual-Control   Outer-Iter.   Inner-Iter.     Column Row Layer    Maximum-Head-Change  Column Row Layer    Maximum-Flux-Residual          L2-NORM 
          0                 1           2             1    1     1      -0.1680657037E-01       1    1    1        -0.8401252788E-03      0.1258751955E-01
          0                 2           2             1    1     1       0.1577443750E-02       1    1    1         0.8401154573E-04      0.1224074963E-02
          0                 3           2             1    1     1      -0.1337812812E-03       1    1    1        -0.7561140245E-05      0.1140398254E-03
          0                 4           1             1    1     1       0.1014304451E-04      14    4    1        -0.7148044201E-06      0.9696204033E-05
          0                 5           1             1    1     1      -0.6777483282E-06      14    4    1         0.6673855246E-07      0.7238072630E-06

    ------------------------------------------------
       NWT REQUIRED            5 OUTER ITERATIONS 
       AND A TOTAL OF          8 INNER ITERATIONS.
    ------------------------------------------------

 NO OUTPUT CONTROL FOR STRESS PERIOD   49   TIME STEP   16
 
 WELLS WITH REDUCED PUMPING FOR STRESS PERIOD    49 TIME STEP    16
   LAY   ROW   COL         APPL.Q          ACT.Q        GW-HEAD       CELL-BOT
     1     3    50  -0.520011E+00  -0.264429E+00   0.566352E+01   0.000000E+00
     1     5    55  -0.520011E+00  -0.208851E+00   0.481780E+01   0.000000E+00
 
 
 SOLVING FOR HEAD 
                                                   Max.-Head-Change                         Max.-Flux-Residual
  Residual-Control   Outer-Iter.   Inner-Iter.     Column Row Layer    Maximum-Head-Change  Column Row Layer    Maximum-Flux-Residual          L2-NORM 
          0                 1           2             1    1     1      -0.1847325330E-01       1    1    1        -0.8397232624E-03      0.1255003913E-01
          0                 2           2             1    1     1       0.1729248288E-02       1    1    1         0.8397119280E-04      0.1219893656E-02
          0                 3           2             1    1     1      -0.1461943564E-03       1    1    1        -0.7557523471E-05      0.1137175855E-03
          0                 4           1             1    1     1       0.1104432991E-04      14    4    1        -0.7274416092E-06      0.9693568416E-05
          0                 5           1             1    1     1      -0.7347463678E-06      14    4    1         0.6834857835E-07      0.7260807590E-06

    ------------------------------------------------
       NWT REQUIRED            5 OUTER ITERATIONS 
       AND A TOTAL OF          8 INNER ITERATIONS.
    ------------------------------------------------

 NO OUTPUT CONTROL FOR STRESS PERIOD   49   TIME STEP   17
 
 WELLS WITH REDUCED PUMPING FOR STRESS PERIOD    49 TIME STEP    17
   LAY   ROW   COL         APPL.Q          ACT.Q        GW-HEAD       CELL-BOT
     1     3    50  -0.520022E+00  -0.264769E+00   0.566832E+01   0.000000E+00
     1     5    55  -0.520022E+00  -0.209139E+00   0.482190E+01   0.000000E+00
 
 
 SOLVING FOR HEAD 
                                                   Max.-Head-Change                         Max.-Flux-Residual
  Residual-Control   Outer-Iter.   Inner-Iter.     Column Row Layer    Maximum-Head-Change  Column Row Layer    Maximum-Flux-Residual          L2-NORM 
          0                 1           2             1    1     1      -0.2030427558E-01       1    1    1        -0.8392808384E-03      0.1257306511E-01
          0                 2           2             1    1     1       0.1895706877E-02       1    1    1         0.8392677979E-04      0.1215870170E-02
          0                 3           2             1    1     1      -0.1597687818E-03       1    1    1        -0.7553543083E-05      0.1133819603E-03
          0                 4           1             1    1     1       0.1202604697E-04      14    4    1        -0.7393602921E-06      0.9693274884E-05
          0                 5           1             1    1     1      -0.7963200786E-06      14    4    1         0.6988188339E-07      0.7284946064E-06

    ------------------------------------------------
       NWT REQUIRED            5 OUTER ITERATIONS 
       AND A TOTAL OF          8 INNER ITERATIONS.
    ------------------------------------------------

 NO OUTPUT CONTROL FOR STRESS PERIOD   49   TIME STEP   18
 
 WELLS WITH REDUCED PUMPING FOR STRESS PERIOD    49 TIME STEP    18
   LAY   ROW   COL         APPL.Q          ACT.Q        GW-HEAD       CELL-BOT
     1     3    50  -0.520017E+00  -0.265119E+00   0.567339E+01   0.000000E+00
     1     5    55  -0.520017E+00  -0.209450E+00   0.482643E+01   0.000000E+00
 
 
 SOLVING FOR HEAD 
                                                   Max.-Head-Change                         Max.-Flux-Residual
  Residual-Control   Outer-Iter.   Inner-Iter.     Column Row Layer    Maximum-Head-Change  Column Row Layer    Maximum-Flux-Residual          L2-NORM 
          0                 1           2             1    1     1      -0.2231564353E-01       1    1    1        -0.8387939322E-03      0.1254491807E-01
          0                 2           2             1    1     1       0.2078249665E-02       1    1    1         0.8387789713E-04      0.1215274870E-02
          0                 3           2             1    1     1      -0.1746178925E-03       1    1    1        -0.7549162412E-05      0.1134322454E-03
          0                 4           1             1    1     1       0.1309591551E-04      15    4    1        -0.7417922436E-06      0.9718929765E-05
          0                 5           1             1    1     1      -0.8628042694E-06      15    4    1         0.7030688742E-07      0.7322696316E-06

    ------------------------------------------------
       NWT REQUIRED            5 OUTER ITERATIONS 
       AND A TOTAL OF          8 INNER ITERATIONS.
    ------------------------------------------------

 NO OUTPUT CONTROL FOR STRESS PERIOD   49   TIME STEP   19
 
 WELLS WITH REDUCED PUMPING FOR STRESS PERIOD    49 TIME STEP    19
   LAY   ROW   COL         APPL.Q          ACT.Q        GW-HEAD       CELL-BOT
     1     3    50  -0.519989E+00  -0.265522E+00   0.567938E+01   0.000000E+00
     1     5    55  -0.519989E+00  -0.209809E+00   0.483180E+01   0.000000E+00
 
 
 SOLVING FOR HEAD 
                                                   Max.-Head-Change                         Max.-Flux-Residual
  Residual-Control   Outer-Iter.   Inner-Iter.     Column Row Layer    Maximum-Head-Change  Column Row Layer    Maximum-Flux-Residual          L2-NORM 
          0                 1           2             1    1     1      -0.2452487690E-01       1    1    1        -0.8382580807E-03      0.1252335491E-01
          0                 2           2             1    1     1       0.2278443756E-02       1    1    1         0.8382409619E-04      0.1214351380E-02
          0                 3           2             1    1     1      -0.1908661164E-03       1    1    1        -0.7544341255E-05      0.1133878746E-03
          0                 4           1             1    1     1       0.1426239732E-04      15    4    1        -0.7544102658E-06      0.9732534312E-05
          0                 5           1             1    1     1      -0.9345250225E-06      15    4    1         0.7193406759E-07      0.7347908310E-06

    ------------------------------------------------
       NWT REQUIRED            5 OUTER ITERATIONS 
       AND A TOTAL OF          8 INNER ITERATIONS.
    ------------------------------------------------

 NO OUTPUT CONTROL FOR STRESS PERIOD   49   TIME STEP   20
 
 WELLS WITH REDUCED PUMPING FOR STRESS PERIOD    49 TIME STEP    20
   LAY   ROW   COL         APPL.Q          ACT.Q        GW-HEAD       CELL-BOT
     1     3    50  -0.519984E+00  -0.265906E+00   0.568493E+01   0.000000E+00
     1     5    55  -0.519984E+00  -0.210149E+00   0.483675E+01   0.000000E+00
 
 
 SOLVING FOR HEAD 
                                                   Max.-Head-Change                         Max.-Flux-Residual
  Residual-Control   Outer-Iter.   Inner-Iter.     Column Row Layer    Maximum-Head-Change  Column Row Layer    Maximum-Flux-Residual          L2-NORM 
          0                 1           2             1    1     1      -0.2695114096E-01       1    1    1        -0.8376683989E-03      0.1248173256E-01
          0                 2           2             1    1     1       0.2498004907E-02       1    1    1         0.8376488586E-04      0.1211654713E-02
          0                 3           2             1    1     1      -0.2086498999E-03       1    1    1        -0.7539035616E-05      0.1132728806E-03
          0                 4           1             1    1     1       0.1553473690E-04      15    4    1        -0.7647102542E-06      0.9746043665E-05
          0                 5           1             1    1     1      -0.1011778095E-05      15    4    1         0.7323871642E-07      0.7372224665E-06
          0                 6           1             1    1     1       0.5703339795E-07      15    4    1        -0.5397955860E-08      0.4775643470E-07

    ------------------------------------------------
       NWT REQUIRED            6 OUTER ITERATIONS 
       AND A TOTAL OF          9 INNER ITERATIONS.
    ------------------------------------------------

 NO OUTPUT CONTROL FOR STRESS PERIOD   49   TIME STEP   21
 
 WELLS WITH REDUCED PUMPING FOR STRESS PERIOD    49 TIME STEP    21
   LAY   ROW   COL         APPL.Q          ACT.Q        GW-HEAD       CELL-BOT
     1     3    50  -0.520000E+00  -0.266281E+00   0.569020E+01   0.000000E+00
     1     5    55  -0.520000E+00  -0.210483E+00   0.484149E+01   0.000000E+00
 
 
 SOLVING FOR HEAD 
                                                   Max.-Head-Change                         Max.-Flux-Residual
  Residual-Control   Outer-Iter.   Inner-Iter.     Column Row Layer    Maximum-Head-Change  Column Row Layer    Maximum-Flux-Residual          L2-NORM 
          0                 1           2             1    1     1      -0.2961539569E-01       1    7    1        -0.8370203202E-03      0.1246230593E-01
          0                 2           2             1    1     1       0.2738810844E-02       1    7    1         0.8369980634E-04      0.1209549951E-02
          0                 3           2             1    1     1      -0.2281187751E-03       1    7    1        -0.7533204348E-05      0.1131197388E-03
          0                 4           1             1    1     1       0.1692300862E-04      15    4    1        -0.7737580408E-06      0.9751807356E-05
          0                 5           1             1    1     1      -0.1094800525E-05      15    4    1         0.7439869165E-07      0.7385740293E-06
          0                 6           1             1    1     1       0.6126840952E-07      15    4    1        -0.5496094246E-08      0.4793115862E-07

    ------------------------------------------------
       NWT REQUIRED            6 OUTER ITERATIONS 
       AND A TOTAL OF          9 INNER ITERATIONS.
    ------------------------------------------------

 NO OUTPUT CONTROL FOR STRESS PERIOD   49   TIME STEP   22
 
 WELLS WITH REDUCED PUMPING FOR STRESS PERIOD    49 TIME STEP    22
   LAY   ROW   COL         APPL.Q          ACT.Q        GW-HEAD       CELL-BOT
     1     3    50  -0.519996E+00  -0.266650E+00   0.569552E+01   0.000000E+00
     1     5    55  -0.519996E+00  -0.210822E+00   0.484641E+01   0.000000E+00
 
 
 SOLVING FOR HEAD 
                                                   Max.-Head-Change                         Max.-Flux-Residual
  Residual-Control   Outer-Iter.   Inner-Iter.     Column Row Layer    Maximum-Head-Change  Column Row Layer    Maximum-Flux-Residual          L2-NORM 
          0                 1           2             1    1     1      -0.3254051603E-01       1    7    1        -0.8363067335E-03      0.1250758591E-01
          0                 2           2             1    1     1       0.3002910750E-02       1    7    1         0.8362814361E-04      0.1207901040E-02
          0                 3           2             1    1     1      -0.2494359983E-03       1    7    1        -0.7526783407E-05      0.1129219256E-03
          0                 4           1             1    1     1       0.1843810929E-04      15    4    1        -0.7821244168E-06      0.9755305291E-05
          0                 5           1             1    1     1      -0.1183727205E-05      15    4    1         0.7546752379E-07      0.7393709049E-06
          0                 6           1             1    1     1       0.6570594603E-07      15    4    1        -0.5582133866E-08      0.4803903434E-07

    ------------------------------------------------
       NWT REQUIRED            6 OUTER ITERATIONS 
       AND A TOTAL OF          9 INNER ITERATIONS.
    ------------------------------------------------

 NO OUTPUT CONTROL FOR STRESS PERIOD   49   TIME STEP   23
 
 WELLS WITH REDUCED PUMPING FOR STRESS PERIOD    49 TIME STEP    23
   LAY   ROW   COL         APPL.Q          ACT.Q        GW-HEAD       CELL-BOT
     1     3    50  -0.520009E+00  -0.267098E+00   0.570186E+01   0.000000E+00
     1     5    55  -0.520009E+00  -0.211252E+00   0.485255E+01   0.000000E+00
 
 
 SOLVING FOR HEAD 
                                                   Max.-Head-Change                         Max.-Flux-Residual
  Residual-Control   Outer-Iter.   Inner-Iter.     Column Row Layer    Maximum-Head-Change  Column Row Layer    Maximum-Flux-Residual          L2-NORM 
          0                 1           2             1    1     1      -0.3575149851E-01       1    7    1        -0.8355215779E-03      0.1250068482E-01
          0                 2           2             1    1     1       0.3292544164E-02       1    7    1         0.8354928783E-04      0.1209211306E-02
          0                 3           2             1    1     1      -0.2727801066E-03       1    7    1        -0.7519718188E-05      0.1130715688E-03
          0                 4           1             1    1     1       0.2009182016E-04      16    4    1        -0.7805865909E-06      0.9778772771E-05
          0                 5           1             1    1     1      -0.1278538994E-05      16    4    1         0.7576470828E-07      0.7404656102E-06
          0                 6           1             1    1     1       0.7030654798E-07      16    4    1        -0.5641705769E-08      0.4810881268E-07

    ------------------------------------------------
       NWT REQUIRED            6 OUTER ITERATIONS 
       AND A TOTAL OF          9 INNER ITERATIONS.
    ------------------------------------------------

 NO OUTPUT CONTROL FOR STRESS PERIOD   49   TIME STEP   24
 
 WELLS WITH REDUCED PUMPING FOR STRESS PERIOD    49 TIME STEP    24
   LAY   ROW   COL         APPL.Q          ACT.Q        GW-HEAD       CELL-BOT
     1     3    50  -0.519998E+00  -0.267586E+00   0.570895E+01   0.000000E+00
     1     5    55  -0.519998E+00  -0.211729E+00   0.485952E+01   0.000000E+00
 
 
 SOLVING FOR HEAD 
                                                   Max.-Head-Change                         Max.-Flux-Residual
  Residual-Control   Outer-Iter.   Inner-Iter.     Column Row Layer    Maximum-Head-Change  Column Row Layer    Maximum-Flux-Residual          L2-NORM 
          0                 1           2             1    1     1      -0.3927560308E-01       1    7    1        -0.8346580466E-03      0.1247542822E-01
          0                 2           2             1    1     1       0.3610151560E-02       1    1    1         0.8346255424E-04      0.1209397612E-02
          0                 3           2             1    1     1      -0.2983455980E-03       1    7    1        -0.7511947321E-05      0.1131377364E-03
          0                 4           1             1    1     1       0.2189677368E-04      16    4    1        -0.7897046785E-06      0.9794820519E-05
          0                 5           1             1    1     1      -0.1378990657E-05      16    4    1         0.7701041760E-07      0.7402952094E-06
          0                 6           1             1    1     1       0.7500718769E-07      16    4    1        -0.5746931819E-08      0.4805511412E-07

    ------------------------------------------------
       NWT REQUIRED            6 OUTER ITERATIONS 
       AND A TOTAL OF          9 INNER ITERATIONS.
    ------------------------------------------------

 NO OUTPUT CONTROL FOR STRESS PERIOD   49   TIME STEP   25
 
 WELLS WITH REDUCED PUMPING FOR STRESS PERIOD    49 TIME STEP    25
   LAY   ROW   COL         APPL.Q          ACT.Q        GW-HEAD       CELL-BOT
     1     3    50  -0.520006E+00  -0.268022E+00   0.571517E+01   0.000000E+00
     1     5    55  -0.520006E+00  -0.212167E+00   0.486580E+01   0.000000E+00
 
 
 SOLVING FOR HEAD 
                                                   Max.-Head-Change                         Max.-Flux-Residual
  Residual-Control   Outer-Iter.   Inner-Iter.     Column Row Layer    Maximum-Head-Change  Column Row Layer    Maximum-Flux-Residual          L2-NORM 
          0                 1           2             2    1     1      -0.4335199562E-01       1    7    1        -0.8337085967E-03      0.1249833603E-01
          0                 2           2             2    1     1       0.3984443979E-02       1    1    1         0.8336951697E-04      0.1208221538E-02
          0                 3           2             2    1     1      -0.3289998782E-03       1    7    1        -0.7503588962E-05      0.1126517060E-03
          0                 4           1             1    1     1       0.2409201482E-04      19    4    1        -0.7680920024E-06      0.9742690107E-05
          0                 5           1             1    1     1      -0.1501029022E-05      16    4    1         0.7580720229E-07      0.7335740798E-06
          0                 6           1             1    1     1       0.8065079309E-07      16    4    1        -0.5694321459E-08      0.4753071750E-07

    ------------------------------------------------
       NWT REQUIRED            6 OUTER ITERATIONS 
       AND A TOTAL OF          9 INNER ITERATIONS.
    ------------------------------------------------

 NO OUTPUT CONTROL FOR STRESS PERIOD   49   TIME STEP   26
 
 WELLS WITH REDUCED PUMPING FOR STRESS PERIOD    49 TIME STEP    26
   LAY   ROW   COL         APPL.Q          ACT.Q        GW-HEAD       CELL-BOT
     1     3    50  -0.520003E+00  -0.268418E+00   0.572088E+01   0.000000E+00
     1     5    55  -0.520003E+00  -0.212578E+00   0.487175E+01   0.000000E+00
 
 
 SOLVING FOR HEAD 
                                                   Max.-Head-Change                         Max.-Flux-Residual
  Residual-Control   Outer-Iter.   Inner-Iter.     Column Row Layer    Maximum-Head-Change  Column Row Layer    Maximum-Flux-Residual          L2-NORM 
          0                 1           3             1    4     1      -0.4941063961E-01       3    5    1        -0.8385755414E-03      0.1269091045E-01
          0                 2           2             3    1     1       0.4481889021E-02       3    5    1         0.8386939716E-04      0.1213406586E-02
          0                 3           2             4    1     1      -0.3698470957E-03       3    5    1        -0.7548633631E-05      0.1120394638E-03
          0                 4           1             4    1     1       0.2702816784E-04      16    4    1        -0.7208541657E-06      0.9648696610E-05
          0                 5           1             3    1     1      -0.1659916019E-05      16    4    1         0.7400893764E-07      0.7224303401E-06
          0                 6           1             3    1     1       0.8741527545E-07      16    4    1        -0.5647851964E-08      0.4670359584E-07

    ------------------------------------------------
       NWT REQUIRED            6 OUTER ITERATIONS 
       AND A TOTAL OF         10 INNER ITERATIONS.
    ------------------------------------------------

 NO OUTPUT CONTROL FOR STRESS PERIOD   49   TIME STEP   27
 
 WELLS WITH REDUCED PUMPING FOR STRESS PERIOD    49 TIME STEP    27
   LAY   ROW   COL         APPL.Q          ACT.Q        GW-HEAD       CELL-BOT
     1     3    50  -0.520001E+00  -0.268792E+00   0.572626E+01   0.000000E+00
     1     5    55  -0.520001E+00  -0.212979E+00   0.487756E+01   0.000000E+00
 
 
 SOLVING FOR HEAD 
                                                   Max.-Head-Change                         Max.-Flux-Residual
  Residual-Control   Outer-Iter.   Inner-Iter.     Column Row Layer    Maximum-Head-Change  Column Row Layer    Maximum-Flux-Residual          L2-NORM 
          0                 1           3             2    4     1      -0.5686884028E-01       1    5    1        -0.8639428562E-03      0.1307055152E-01
          0                 2           2             1    1     1       0.5110127603E-02       1    5    1         0.8641702420E-04      0.1238761876E-02
          0                 3           2             1    1     1      -0.4206706865E-03       1    5    1        -0.7777930426E-05      0.1133753720E-03
          0                 4           1             1    1     1       0.3061750295E-04      17    4    1        -0.6759473692E-06      0.9721232061E-05
          0                 5           1             1    1     1      -0.1848703781E-05      17    4    1         0.7141771086E-07      0.7223007801E-06
          0                 6           1             1    1     1       0.9567706831E-07      18    4    1        -0.5445443207E-08      0.4651052063E-07

    ------------------------------------------------
       NWT REQUIRED            6 OUTER ITERATIONS 
       AND A TOTAL OF         10 INNER ITERATIONS.
    ------------------------------------------------

 NO OUTPUT CONTROL FOR STRESS PERIOD   49   TIME STEP   28
 
 WELLS WITH REDUCED PUMPING FOR STRESS PERIOD    49 TIME STEP    28
   LAY   ROW   COL         APPL.Q          ACT.Q        GW-HEAD       CELL-BOT
     1     3    50  -0.519991E+00  -0.269146E+00   0.573142E+01   0.000000E+00
     1     5    55  -0.519991E+00  -0.213377E+00   0.488336E+01   0.000000E+00
 
 
 SOLVING FOR HEAD 
                                                   Max.-Head-Change                         Max.-Flux-Residual
  Residual-Control   Outer-Iter.   Inner-Iter.     Column Row Layer    Maximum-Head-Change  Column Row Layer    Maximum-Flux-Residual          L2-NORM 
          0                 1           3             4    4     1      -0.6255703158E-01       1    5    1        -0.9005636805E-03      0.1336794679E-01
          0                 2           2             1    1     1       0.5735184300E-02       1    5    1         0.9005540017E-04      0.1274958771E-02
          0                 3           2             2    1     1      -0.4739972614E-03       1    5    1        -0.8105597201E-05      0.1168201745E-03
          0                 4           1             3    1     1       0.3458305319E-04      20    4    1        -0.7406514904E-06      0.1000093019E-04
          0                 5           1             3    1     1      -0.2058013396E-05      20    4    1         0.7534790214E-07      0.7347997584E-06
          0                 6           1             1    1     1       0.1045846857E-06      20    4    1        -0.5699599015E-08      0.4693169992E-07

    ------------------------------------------------
       NWT REQUIRED            6 OUTER ITERATIONS 
       AND A TOTAL OF         10 INNER ITERATIONS.
    ------------------------------------------------

 NO OUTPUT CONTROL FOR STRESS PERIOD   49   TIME STEP   29
 
 WELLS WITH REDUCED PUMPING FOR STRESS PERIOD    49 TIME STEP    29
   LAY   ROW   COL         APPL.Q          ACT.Q        GW-HEAD       CELL-BOT
     1     3    50  -0.520005E+00  -0.269488E+00   0.573622E+01   0.000000E+00
     1     5    55  -0.520005E+00  -0.213778E+00   0.488907E+01   0.000000E+00
 
 
 SOLVING FOR HEAD 
                                                   Max.-Head-Change                         Max.-Flux-Residual
  Residual-Control   Outer-Iter.   Inner-Iter.     Column Row Layer    Maximum-Head-Change  Column Row Layer    Maximum-Flux-Residual          L2-NORM 
          0                 1           3             1    4     1      -0.7154793713E-01       3    5    1        -0.9068544928E-03      0.1377041014E-01
          0                 2           2             1    1     1       0.6488196355E-02       3    5    1         0.9070711519E-04      0.1304567490E-02
          0                 3           2             1    1     1      -0.5349429983E-03       4    3    1        -0.8170254681E-05      0.1186983910E-03
          0                 4           1             1    1     1       0.3886442173E-04      17    4    1        -0.6689147281E-06      0.1012311329E-04
          0                 5           1             1    1     1      -0.2253995149E-05      17    4    1         0.7314214301E-07      0.7352149673E-06
          0                 6           1             1    1     1       0.1111714360E-06      17    4    1        -0.5495181199E-08      0.4665865887E-07

    ------------------------------------------------
       NWT REQUIRED            6 OUTER ITERATIONS 
       AND A TOTAL OF         10 INNER ITERATIONS.
    ------------------------------------------------

 NO OUTPUT CONTROL FOR STRESS PERIOD   49   TIME STEP   30
 
 WELLS WITH REDUCED PUMPING FOR STRESS PERIOD    49 TIME STEP    30
   LAY   ROW   COL         APPL.Q          ACT.Q        GW-HEAD       CELL-BOT
     1     3    50  -0.520176E+00  -0.269839E+00   0.573999E+01   0.000000E+00
     1     5    55  -0.520176E+00  -0.214201E+00   0.489416E+01   0.000000E+00
 



 STREAM LISTING     PERIOD     49   STEP       30

 LAYER ROW COL. STREAM  RCH.   FLOW INTO    STREAM     FLOW OUT OF   OVRLND.    DIRECT     STREAM      STREAM      STREAM     STREAM  STREAMBED   FLOW TO   CHNG. UNSAT. 
                SEG.NO.  NO.   STRM. RCH.    LOSS       STRM. RCH.   RUNOFF     PRECIP       ET         HEAD        DEPTH      WIDTH  CONDCTNC.   WAT. TAB.

   1    4    1     1     1    0.0000E+00  0.0000E+00   0.0000E+00  0.000E+00  0.000E+00  0.000E+00  1.39850E+02  0.000E+00  6.000E+00  8.400E-04  8.039E-04 -8.039E-04
   1    4    2     1     2    0.0000E+00  0.0000E+00   0.0000E+00  0.000E+00  0.000E+00  0.000E+00  1.39550E+02  0.000E+00  6.000E+00  8.400E-04  8.036E-04 -8.036E-04
   1    4    3     1     3    0.0000E+00  0.0000E+00   0.0000E+00  0.000E+00  0.000E+00  0.000E+00  1.39250E+02  0.000E+00  6.000E+00  8.400E-04  8.033E-04 -8.033E-04
   1    4    4     1     4    0.0000E+00  0.0000E+00   0.0000E+00  0.000E+00  0.000E+00  0.000E+00  1.38950E+02  0.000E+00  6.000E+00  8.400E-04  8.030E-04 -8.030E-04
   1    4    5     1     5    0.0000E+00  0.0000E+00   0.0000E+00  0.000E+00  0.000E+00  0.000E+00  1.38650E+02  0.000E+00  6.000E+00  8.400E-04  8.028E-04 -8.028E-04
   1    4    6     1     6    0.0000E+00  0.0000E+00   0.0000E+00  0.000E+00  0.000E+00  0.000E+00  1.38350E+02  0.000E+00  6.000E+00  8.400E-04  8.025E-04 -8.025E-04
   1    4    7     1     7    0.0000E+00  0.0000E+00   0.0000E+00  0.000E+00  0.000E+00  0.000E+00  1.38050E+02  0.000E+00  6.000E+00  8.400E-04  8.023E-04 -8.023E-04
   1    4    8     1     8    0.0000E+00  0.0000E+00   0.0000E+00  0.000E+00  0.000E+00  0.000E+00  1.37750E+02  0.000E+00  6.000E+00  8.400E-04  8.021E-04 -8.021E-04
   1    4    9     1     9    0.0000E+00  0.0000E+00   0.0000E+00  0.000E+00  0.000E+00  0.000E+00  1.37450E+02  0.000E+00  6.000E+00  8.400E-04  8.019E-04 -8.019E-04
   1    4   10     1    10    0.0000E+00  0.0000E+00   0.0000E+00  0.000E+00  0.000E+00  0.000E+00  1.37150E+02  0.000E+00  6.000E+00  8.400E-04  8.017E-04 -8.017E-04
   1    4   11     1    11    0.0000E+00  0.0000E+00   0.0000E+00  0.000E+00  0.000E+00  0.000E+00  1.36850E+02  0.000E+00  6.000E+00  8.400E-04  8.015E-04 -8.015E-04
   1    4   12     1    12    0.0000E+00  0.0000E+00   0.0000E+00  0.000E+00  0.000E+00  0.000E+00  1.36550E+02  0.000E+00  6.000E+00  8.400E-04  8.013E-04 -8.013E-04
   1    4   13     1    13    0.0000E+00  0.0000E+00   0.0000E+00  0.000E+00  0.000E+00  0.000E+00  1.36250E+02  0.000E+00  6.000E+00  8.400E-04  8.012E-04 -8.012E-04
   1    4   14     1    14    0.0000E+00  0.0000E+00   0.0000E+00  0.000E+00  0.000E+00  0.000E+00  1.35950E+02  0.000E+00  6.000E+00  8.400E-04  8.010E-04 -8.010E-04
   1    4   15     1    15    0.0000E+00  0.0000E+00   0.0000E+00  0.000E+00  0.000E+00  0.000E+00  1.35650E+02  0.000E+00  6.000E+00  8.400E-04  8.009E-04 -8.009E-04
   1    4   16     1    16    0.0000E+00  0.0000E+00   0.0000E+00  0.000E+00  0.000E+00  0.000E+00  1.35350E+02  0.000E+00  6.000E+00  8.400E-04  8.008E-04 -8.008E-04
   1    4   17     1    17    0.0000E+00  0.0000E+00   0.0000E+00  0.000E+00  0.000E+00  0.000E+00  1.35050E+02  0.000E+00  6.000E+00  8.400E-04  8.064E-04 -8.064E-04
   1    4   18     1    18    0.0000E+00  0.0000E+00   0.0000E+00  0.000E+00  0.000E+00  0.000E+00  1.34750E+02  0.000E+00  6.000E+00  8.400E-04  8.064E-04 -8.064E-04
   1    4   19     1    19    0.0000E+00  0.0000E+00   0.0000E+00  0.000E+00  0.000E+00  0.000E+00  1.34450E+02  0.000E+00  6.000E+00  8.400E-04  8.064E-04 -8.064E-04
   1    4   20     1    20    0.0000E+00  0.0000E+00   0.0000E+00  0.000E+00  0.000E+00  0.000E+00  1.34150E+02  0.000E+00  6.000E+00  8.400E-04  8.253E-04 -8.253E-04
   1    4   21     1    21    0.0000E+00  0.0000E+00   0.0000E+00  0.000E+00  0.000E+00  0.000E+00  1.33850E+02  0.000E+00  6.000E+00  8.400E-04  8.467E-04 -8.467E-04
   1    4   22     1    22    0.0000E+00  0.0000E+00   0.0000E+00  0.000E+00  0.000E+00  0.000E+00  1.33550E+02  0.000E+00  6.000E+00  8.400E-04  8.701E-04 -8.701E-04
   1    4   23     1    23    0.0000E+00  0.0000E+00   0.0000E+00  0.000E+00  0.000E+00  0.000E+00  1.33250E+02  0.000E+00  6.000E+00  8.400E-04  8.955E-04 -8.955E-04
   1    4   24     1    24    0.0000E+00  0.0000E+00   0.0000E+00  0.000E+00  0.000E+00  0.000E+00  1.32950E+02  0.000E+00  6.000E+00  8.400E-04  9.231E-04 -9.231E-04
   1    4   25     1    25    0.0000E+00  0.0000E+00   0.0000E+00  0.000E+00  0.000E+00  0.000E+00  1.32650E+02  0.000E+00  6.000E+00  8.400E-04  9.529E-04 -9.529E-04
   1    4   26     1    26    0.0000E+00  0.0000E+00   0.0000E+00  0.000E+00  0.000E+00  0.000E+00  1.32350E+02  0.000E+00  6.000E+00  8.400E-04  9.849E-04 -9.849E-04
   1    4   27     1    27    0.0000E+00  0.0000E+00   0.0000E+00  0.000E+00  0.000E+00  0.000E+00  1.32050E+02  0.000E+00  6.000E+00  8.400E-04  1.019E-03 -1.019E-03
   1    4   28     1    28    0.0000E+00  0.0000E+00   0.0000E+00  0.000E+00  0.000E+00  0.000E+00  1.31750E+02  0.000E+00  6.000E+00  8.400E-04  1.056E-03 -1.056E-03
   1    4   29     1    29    0.0000E+00  0.0000E+00   0.0000E+00  0.000E+00  0.000E+00  0.000E+00  1.31450E+02  0.000E+00  6.000E+00  8.400E-04  1.082E-03 -1.082E-03
   1    4   30     1    30    0.0000E+00  0.0000E+00   0.0000E+00  0.000E+00  0.000E+00  0.000E+00  1.31150E+02  0.000E+00  6.000E+00  8.400E-04  1.089E-03 -1.089E-03
   1    4   31     1    31    0.0000E+00  0.0000E+00   0.0000E+00  0.000E+00  0.000E+00  0.000E+00  1.30850E+02  0.000E+00  6.000E+00  8.400E-04  1.094E-03 -1.094E-03
   1    4   32     1    32    0.0000E+00  0.0000E+00   0.0000E+00  0.000E+00  0.000E+00  0.000E+00  1.30550E+02  0.000E+00  6.000E+00  8.400E-04  1.142E-03 -1.142E-03
   1    4   33     1    33    0.0000E+00  0.0000E+00   0.0000E+00  0.000E+00  0.000E+00  0.000E+00  1.30250E+02  0.000E+00  6.000E+00  8.400E-04  1.142E-03 -1.142E-03
   1    4   34     1    34    0.0000E+00  0.0000E+00   0.0000E+00  0.000E+00  0.000E+00  0.000E+00  1.29950E+02  0.000E+00  6.000E+00  8.400E-04  1.154E-03 -1.154E-03
   1    4   35     1    35    0.0000E+00  0.0000E+00   0.0000E+00  0.000E+00  0.000E+00  0.000E+00  1.29650E+02  0.000E+00  6.000E+00  8.400E-04  1.198E-03 -1.198E-03
   1    4   36     1    36    0.0000E+00  0.0000E+00   0.0000E+00  0.000E+00  0.000E+00  0.000E+00  1.29350E+02  0.000E+00  6.000E+00  8.400E-04  1.244E-03 -1.244E-03
   1    4   37     1    37    0.0000E+00  0.0000E+00   0.0000E+00  0.000E+00  0.000E+00  0.000E+00  1.29050E+02  0.000E+00  6.000E+00  8.400E-04  1.293E-03 -1.293E-03
   1    4   38     1    38    0.0000E+00  0.0000E+00   0.0000E+00  0.000E+00  0.000E+00  0.000E+00  1.28750E+02  0.000E+00  6.000E+00  8.400E-04  1.346E-03 -1.346E-03
   1    4   39     1    39    0.0000E+00  0.0000E+00   0.0000E+00  0.000E+00  0.000E+00  0.000E+00  1.28450E+02  0.000E+00  6.000E+00  8.400E-04  1.403E-03 -1.403E-03
   1    4   40     1    40    0.0000E+00  0.0000E+00   0.0000E+00  0.000E+00  0.000E+00  0.000E+00  1.28150E+02  0.000E+00  6.000E+00  8.400E-04  1.416E-03 -1.416E-03
   1    4   41     1    41    0.0000E+00  0.0000E+00   0.0000E+00  0.000E+00  0.000E+00  0.000E+00  1.27850E+02  0.000E+00  6.000E+00  8.400E-04  1.460E-03 -1.460E-03
   1    4   42     1    42    0.0000E+00  0.0000E+00   0.0000E+00  0.000E+00  0.000E+00  0.000E+00  1.27550E+02  0.000E+00  6.000E+00  8.400E-04  1.508E-03 -1.508E-03
   1    4   43     1    43    0.0000E+00  0.0000E+00   0.0000E+00  0.000E+00  0.000E+00  0.000E+00  1.27250E+02  0.000E+00  6.000E+00  8.400E-04  1.566E-03 -1.564E-03
   1    4   44     1    44    0.0000E+00  0.0000E+00   0.0000E+00  0.000E+00  0.000E+00  0.000E+00  1.26950E+02  0.000E+00  6.000E+00  8.400E-04  1.607E-03 -1.604E-03
   1    4   45     1    45    0.0000E+00  0.0000E+00   0.0000E+00  0.000E+00  0.000E+00  0.000E+00  1.26650E+02  0.000E+00  6.000E+00  8.400E-04  1.611E-03 -1.605E-03
   1    4   46     1    46    0.0000E+00  0.0000E+00   0.0000E+00  0.000E+00  0.000E+00  0.000E+00  1.26350E+02  0.000E+00  6.000E+00  8.400E-04  1.614E-03 -1.608E-03
   1    4   47     1    47    0.0000E+00  0.0000E+00   0.0000E+00  0.000E+00  0.000E+00  0.000E+00  1.26050E+02  0.000E+00  6.000E+00  8.400E-04  1.618E-03 -1.612E-03
   1    4   48     1    48    0.0000E+00  0.0000E+00   0.0000E+00  0.000E+00  0.000E+00  0.000E+00  1.25750E+02  0.000E+00  6.000E+00  8.400E-04  1.622E-03 -1.616E-03
   1    4   49     1    49    0.0000E+00  0.0000E+00   0.0000E+00  0.000E+00  0.000E+00  0.000E+00  1.25450E+02  0.000E+00  6.000E+00  8.400E-04  1.626E-03 -1.620E-03
   1    4   50     1    50    0.0000E+00  0.0000E+00   0.0000E+00  0.000E+00  0.000E+00  0.000E+00  1.25150E+02  0.000E+00  6.000E+00  8.400E-04  1.629E-03 -1.623E-03
   1    4   51     1    51    0.0000E+00  0.0000E+00   0.0000E+00  0.000E+00  0.000E+00  0.000E+00  1.24850E+02  0.000E+00  6.000E+00  8.400E-04  1.641E-03 -1.635E-03
   1    4   52     1    52    0.0000E+00  0.0000E+00   0.0000E+00  0.000E+00  0.000E+00  0.000E+00  1.24550E+02  0.000E+00  6.000E+00  8.400E-04  1.647E-03 -1.641E-03
   1    4   53     1    53    0.0000E+00  0.0000E+00   0.0000E+00  0.000E+00  0.000E+00  0.000E+00  1.24250E+02  0.000E+00  6.000E+00  8.400E-04  1.647E-03 -1.641E-03
   1    4   54     1    54    0.0000E+00  0.0000E+00   0.0000E+00  0.000E+00  0.000E+00  0.000E+00  1.23950E+02  0.000E+00  6.000E+00  8.400E-04  1.641E-03 -1.635E-03
   1    4   55     1    55    0.0000E+00  0.0000E+00   0.0000E+00  0.000E+00  0.000E+00  0.000E+00  1.23650E+02  0.000E+00  6.000E+00  8.400E-04  1.628E-03 -1.622E-03
   1    4   56     1    56    0.0000E+00  0.0000E+00   0.0000E+00  0.000E+00  0.000E+00  0.000E+00  1.23350E+02  0.000E+00  6.000E+00  8.400E-04  1.625E-03 -1.619E-03
   1    4   57     1    57    0.0000E+00  0.0000E+00   0.0000E+00  0.000E+00  0.000E+00  0.000E+00  1.23050E+02  0.000E+00  6.000E+00  8.400E-04  1.622E-03 -1.615E-03
   1    4   58     1    58    0.0000E+00  0.0000E+00   0.0000E+00  0.000E+00  0.000E+00  0.000E+00  1.22750E+02  0.000E+00  6.000E+00  8.400E-04  1.618E-03 -1.611E-03
   1    4   59     1    59    0.0000E+00  0.0000E+00   0.0000E+00  0.000E+00  0.000E+00  0.000E+00  1.22450E+02  0.000E+00  6.000E+00  8.400E-04  1.614E-03 -1.607E-03
   1    4   60     1    60    0.0000E+00  0.0000E+00   0.0000E+00  0.000E+00  0.000E+00  0.000E+00  1.22150E+02  0.000E+00  6.000E+00  8.400E-04  1.610E-03 -1.604E-03
   1    4   61     1    61    0.0000E+00  0.0000E+00   0.0000E+00  0.000E+00  0.000E+00  0.000E+00  1.21850E+02  0.000E+00  6.000E+00  8.400E-04  1.606E-03 -1.602E-03
   1    4   62     1    62    0.0000E+00  0.0000E+00   0.0000E+00  0.000E+00  0.000E+00  0.000E+00  1.21550E+02  0.000E+00  6.000E+00  8.400E-04  1.567E-03 -1.565E-03
   1    4   63     1    63    0.0000E+00  0.0000E+00   0.0000E+00  0.000E+00  0.000E+00  0.000E+00  1.21250E+02  0.000E+00  6.000E+00  8.400E-04  1.510E-03 -1.510E-03
   1    4   64     1    64    0.0000E+00  0.0000E+00   0.0000E+00  0.000E+00  0.000E+00  0.000E+00  1.20950E+02  0.000E+00  6.000E+00  8.400E-04  1.457E-03 -1.457E-03
   1    4   65     1    65    0.0000E+00  0.0000E+00   0.0000E+00  0.000E+00  0.000E+00  0.000E+00  1.20650E+02  0.000E+00  6.000E+00  8.400E-04  1.407E-03 -1.407E-03
   1    4   66     1    66    0.0000E+00  0.0000E+00   0.0000E+00  0.000E+00  0.000E+00  0.000E+00  1.20350E+02  0.000E+00  6.000E+00  8.400E-04  1.377E-03 -1.377E-03
   1    4   67     1    67    0.0000E+00  0.0000E+00   0.0000E+00  0.000E+00  0.000E+00  0.000E+00  1.20050E+02  0.000E+00  6.000E+00  8.400E-04  1.310E-03 -1.310E-03
   1    4   68     1    68    0.0000E+00  0.0000E+00   0.0000E+00  0.000E+00  0.000E+00  0.000E+00  1.19750E+02  0.000E+00  6.000E+00  8.400E-04  1.247E-03 -1.247E-03
   1    4   69     1    69    0.0000E+00  0.0000E+00   0.0000E+00  0.000E+00  0.000E+00  0.000E+00  1.19450E+02  0.000E+00  6.000E+00  8.400E-04  1.186E-03 -1.186E-03
   1    4   70     1    70    0.0000E+00  0.0000E+00   0.0000E+00  0.000E+00  0.000E+00  0.000E+00  1.19150E+02  0.000E+00  6.000E+00  8.400E-04  1.153E-03 -1.153E-03
   1    4   71     1    71    0.0000E+00  0.0000E+00   0.0000E+00  0.000E+00  0.000E+00  0.000E+00  1.18850E+02  0.000E+00  6.000E+00  8.400E-04  1.145E-03 -1.145E-03
   1    4   72     1    72    0.0000E+00  0.0000E+00   0.0000E+00  0.000E+00  0.000E+00  0.000E+00  1.18550E+02  0.000E+00  6.000E+00  8.400E-04  1.097E-03 -1.097E-03
   1    4   73     1    73    0.0000E+00  0.0000E+00   0.0000E+00  0.000E+00  0.000E+00  0.000E+00  1.18250E+02  0.000E+00  6.000E+00  8.400E-04  1.078E-03 -1.078E-03
   1    4   74     1    74    0.0000E+00  0.0000E+00   0.0000E+00  0.000E+00  0.000E+00  0.000E+00  1.17950E+02  0.000E+00  6.000E+00  8.400E-04  1.012E-03 -1.012E-03
   1    4   75     1    75    0.0000E+00  0.0000E+00   0.0000E+00  0.000E+00  0.000E+00  0.000E+00  1.17650E+02  0.000E+00  6.000E+00  8.400E-04  9.472E-04 -9.472E-04
   1    4   76     1    76    0.0000E+00  0.0000E+00   0.0000E+00  0.000E+00  0.000E+00  0.000E+00  1.17350E+02  0.000E+00  6.000E+00  8.400E-04  8.848E-04 -8.848E-04
   1    4   77     1    77    0.0000E+00  0.0000E+00   0.0000E+00  0.000E+00  0.000E+00  0.000E+00  1.17050E+02  0.000E+00  6.000E+00  8.400E-04  8.245E-04 -8.245E-04
   1    4   78     1    78    0.0000E+00  0.0000E+00   0.0000E+00  0.000E+00  0.000E+00  0.000E+00  1.16750E+02  0.000E+00  6.000E+00  8.400E-04  8.237E-04 -8.237E-04
   1    4   79     1    79    0.0000E+00  0.0000E+00   0.0000E+00  0.000E+00  0.000E+00  0.000E+00  1.16450E+02  0.000E+00  6.000E+00  8.400E-04  8.236E-04 -8.236E-04
   1    4   80     1    80    0.0000E+00  0.0000E+00   0.0000E+00  0.000E+00  0.000E+00  0.000E+00  1.16150E+02  0.000E+00  6.000E+00  8.400E-04  8.156E-04 -8.156E-04
   1    4   81     1    81    0.0000E+00  0.0000E+00   0.0000E+00  0.000E+00  0.000E+00  0.000E+00  1.15850E+02  0.000E+00  6.000E+00  8.400E-04  8.159E-04 -8.159E-04
   1    4   82     1    82    0.0000E+00  0.0000E+00   0.0000E+00  0.000E+00  0.000E+00  0.000E+00  1.15550E+02  0.000E+00  6.000E+00  8.400E-04  8.161E-04 -8.161E-04
   1    4   83     1    83    0.0000E+00  0.0000E+00   0.0000E+00  0.000E+00  0.000E+00  0.000E+00  1.15250E+02  0.000E+00  6.000E+00  8.400E-04  8.068E-04 -8.068E-04
   1    4   84     1    84    0.0000E+00  0.0000E+00   0.0000E+00  0.000E+00  0.000E+00  0.000E+00  1.14950E+02  0.000E+00  6.000E+00  8.400E-04  7.823E-04 -7.823E-04
   1    4   85     1    85    0.0000E+00  0.0000E+00   0.0000E+00  0.000E+00  0.000E+00  0.000E+00  1.14650E+02  0.000E+00  6.000E+00  8.400E-04  7.222E-04 -7.222E-04
   1    4   86     1    86    0.0000E+00  0.0000E+00   0.0000E+00  0.000E+00  0.000E+00  0.000E+00  1.14350E+02  0.000E+00  6.000E+00  8.400E-04  6.634E-04 -6.634E-04
   1    4   87     1    87    0.0000E+00  0.0000E+00   0.0000E+00  0.000E+00  0.000E+00  0.000E+00  1.14050E+02  0.000E+00  6.000E+00  8.400E-04  6.060E-04 -6.060E-04
   1    4   88     1    88    0.0000E+00  0.0000E+00   0.0000E+00  0.000E+00  0.000E+00  0.000E+00  1.13750E+02  0.000E+00  6.000E+00  8.400E-04  5.500E-04 -5.500E-04
   1    4   89     1    89    0.0000E+00  0.0000E+00   0.0000E+00  0.000E+00  0.000E+00  0.000E+00  1.13450E+02  0.000E+00  6.000E+00  8.400E-04  5.446E-04 -5.446E-04
   1    4   90     1    90    0.0000E+00  0.0000E+00   0.0000E+00  0.000E+00  0.000E+00  0.000E+00  1.13150E+02  0.000E+00  6.000E+00  8.400E-04  5.451E-04 -5.451E-04
   1    4   91     1    91    0.0000E+00  0.0000E+00   0.0000E+00  0.000E+00  0.000E+00  0.000E+00  1.12850E+02  0.000E+00  6.000E+00  8.400E-04  5.457E-04 -5.457E-04
   1    4   92     1    92    0.0000E+00  0.0000E+00   0.0000E+00  0.000E+00  0.000E+00  0.000E+00  1.12550E+02  0.000E+00  6.000E+00  8.400E-04  5.464E-04 -5.464E-04
   1    4   93     1    93    0.0000E+00  0.0000E+00   0.0000E+00  0.000E+00  0.000E+00  0.000E+00  1.12250E+02  0.000E+00  6.000E+00  8.400E-04  5.441E-04 -5.441E-04
   1    4   94     1    94    0.0000E+00  0.0000E+00   0.0000E+00  0.000E+00  0.000E+00  0.000E+00  1.11950E+02  0.000E+00  6.000E+00  8.400E-04  5.401E-04 -5.401E-04
   1    4   95     1    95    0.0000E+00  0.0000E+00   0.0000E+00  0.000E+00  0.000E+00  0.000E+00  1.11650E+02  0.000E+00  6.000E+00  8.400E-04  5.409E-04 -5.409E-04
   1    4   96     1    96    0.0000E+00  0.0000E+00   0.0000E+00  0.000E+00  0.000E+00  0.000E+00  1.11350E+02  0.000E+00  6.000E+00  8.400E-04  5.419E-04 -5.419E-04
   1    4   97     1    97    0.0000E+00  0.0000E+00   0.0000E+00  0.000E+00  0.000E+00  0.000E+00  1.11050E+02  0.000E+00  6.000E+00  8.400E-04  5.430E-04 -5.430E-04
   1    4   98     1    98    0.0000E+00  0.0000E+00   0.0000E+00  0.000E+00  0.000E+00  0.000E+00  1.10750E+02  0.000E+00  6.000E+00  8.400E-04  5.444E-04 -5.444E-04
   1    4   99     1    99    0.0000E+00  0.0000E+00   0.0000E+00  0.000E+00  0.000E+00  0.000E+00  1.10450E+02  0.000E+00  6.000E+00  8.400E-04  5.303E-04 -5.303E-04
   1    4  100     1   100    0.0000E+00  0.0000E+00   0.0000E+00  0.000E+00  0.000E+00  0.000E+00  1.10150E+02  0.000E+00  6.000E+00  8.400E-04  4.771E-04 -4.771E-04



1
  VOLUMETRIC BUDGET FOR UNSATURATED ZONE BENEATH STREAMS AT END OF TIME STEP    30 STRESS PERIOD  49
  ------------------------------------------------------------------------------------------------

    CUMULATIVE VOLUMES             L**3    RATES FOR THIS TIME STEP         L**3/T
    ------------------                     ------------------------


          STREAM LOSS =     35583000.0000            STREAM LOSS =            0.0000
    CHANGE IN STORAGE =      1118493.1250      CHANGE IN STORAGE =           -0.1058
       RECHARGE TO GW =     34474044.0000         RECHARGE TO GW =            0.1059

             TOTAL IN =     35583000.0000               TOTAL IN =            0.1058

            TOTAL OUT =     35592536.0000              TOTAL OUT =            0.1059

             IN - OUT =        -9536.0000               IN - OUT =       -1.1089E-04

  PERCENT DISCREPANCY =           -0.01      PERCENT DISCREPANCY =            -0.03



1
  VOLUMETRIC BUDGET FOR ENTIRE MODEL AT END OF TIME STEP   30, STRESS PERIOD  49
  ------------------------------------------------------------------------------

     CUMULATIVE VOLUMES      L**3       RATES FOR THIS TIME STEP      L**3/T
     ------------------                 ------------------------

           IN:                                      IN:
           ---                                      ---
             STORAGE     =   117375152.0000               STORAGE     =           0.2902
       CONSTANT HEAD     =           0.0000         CONSTANT HEAD     =           0.0000
               WELLS     =           0.0000                 WELLS     =           0.0000
     HEAD DEP BOUNDS     =     3878277.2500       HEAD DEP BOUNDS     =           0.1002
      STREAM LEAKAGE     =    34473576.0000        STREAM LEAKAGE     =           0.1059

                TOTAL IN =   155727008.0000                  TOTAL IN =           0.4963

          OUT:                                     OUT:
          ----                                     ----
             STORAGE     =     3747533.7500               STORAGE     =       1.2217E-02
       CONSTANT HEAD     =           0.0000         CONSTANT HEAD     =           0.0000
               WELLS     =   135593632.0000                 WELLS     =           0.4840
     HEAD DEP BOUNDS     =    16385952.0000       HEAD DEP BOUNDS     =           0.0000
      STREAM LEAKAGE     =           0.0000        STREAM LEAKAGE     =           0.0000

               TOTAL OUT =   155727120.0000                 TOTAL OUT =           0.4963

                IN - OUT =        -112.0000                  IN - OUT =           0.0000

     PERCENT DISCREPANCY =          -0.00         PERCENT DISCREPANCY =           0.00






         TIME SUMMARY AT END OF TIME STEP   30 IN STRESS PERIOD   49
                    SECONDS     MINUTES      HOURS       DAYS        YEARS
                    -----------------------------------------------------------
   TIME STEP LENGTH 2.49961E+05  4166.0      69.434      2.8931     7.92080E-03
 STRESS PERIOD TIME 2.59200E+06  43200.      720.00      30.000     8.21355E-02
         TOTAL TIME 1.27008E+08 2.11680E+06  35280.      1470.0      4.0246    
1
1
                            STRESS PERIOD NO.   50, LENGTH =   2592000.    
                            -----------------------------------------------

                              NUMBER OF TIME STEPS =    30

                               MULTIPLIER FOR DELT =     1.100

                            INITIAL TIME STEP SIZE =   15757.40    

 REUSING NON-PARAMETER WELLS FROM LAST STRESS PERIOD

      1 WELL 

 REUSING NON-PARAMETER GHB CELLS FROM LAST STRESS PERIOD

      7 GHB CELLS



 CLASSIFICATION & COUNT OF STREAM SEGMENTS BASED ON SOURCE OF INFLOW:

                HEADWATER     DIVERSION     RECEIVES TRIBUTARY FLOW
                ---------     ---------     -----------------------
                     1              0               0



                    INPUT DATA FOR EACH STREAM SEGMENT
 ---------------------------------------------------------------------------------------------

 SEGMENT    SEG.     INFLOW   OVERLAND   STREAM    STREAM   ICALC  OUTFLOW  DIVERSION PRIORITY
    NO.    LENGTH     RATE     RUNOFF      ET       PPT.    METH.  TO SEG.  FROM SEG.    NO.

      1  2.000E+04 9.000E-01 0.000E+00 0.000E+00 0.000E+00    2        0        0        0


         STREAMBED PROPERTIES AND STREAM DIMENSIONS

 SEGMENT     BED HYD. COND.      BED THICKNESS     ELEV.-TOP OF BED     WIDTH OF STREAM     DEPTH OF STREAM    STREAM ROUGHNESS
    No.     UPPER     LOWER     UPPER     LOWER     UPPER     LOWER     UPPER     LOWER     UPPER     LOWER   CHANNEL      BANK

     1  3.500E-07 3.500E-07                                                                                 3.000E-02 4.000E-02

  EIGHT POINT CROSS-SECTION DATA FOR SEGMENTS WITH ICALC = 2
    X VALUES X VALUES START FROM LEFT SIDE LOOKING DOWNSTREAM

     SEGMENT NO.        X1        X2        X3        X4        X5        X6        X7        X8
            1      0.000E+00 2.000E+00 4.000E+00 6.000E+00 8.000E+00 1.000E+01 1.200E+01 1.400E+01

    Z VALUES ARE RELATIVE TO STREAMBED ELEVATION

     SEGMENT NO.          Z1        Z2        Z3        Z4        Z5        Z6        Z7        Z8
            1      6.000E+00 4.500E+00 3.500E+00 0.000E+00 3.000E-01 3.500E+00 4.500E+00 6.000E+00



 
 SOLVING FOR HEAD 
                                                   Max.-Head-Change                         Max.-Flux-Residual
  Residual-Control   Outer-Iter.   Inner-Iter.     Column Row Layer    Maximum-Head-Change  Column Row Layer    Maximum-Flux-Residual          L2-NORM 
          0                 1           2            50    3     1      -0.5120849382E+00      50    3    1        -0.1814892677E+00      0.2321190760E+00
          0                 2           2            50    3     1       0.5028902346E-01      50    3    1         0.1803740715E-01      0.2278771842E-01
          0                 3           2            50    3     1      -0.4485247708E-02      50    3    1        -0.1627231486E-02      0.2058852832E-02
          0                 4           2            50    3     1       0.3555864215E-03      50    3    1         0.1303138497E-03      0.1649181622E-03
          0                 5           1            50    3     1      -0.2475935857E-04      50    3    1        -0.9161107726E-05      0.1159619435E-04
          0                 6           1            50    3     1       0.1486447603E-05      50    3    1         0.5551260853E-06      0.7027471024E-06
          0                 7           1            50    3     1      -0.7510415106E-07      50    3    1        -0.2830593443E-07      0.3583438798E-07

    ------------------------------------------------
       NWT REQUIRED            7 OUTER ITERATIONS 
       AND A TOTAL OF         11 INNER ITERATIONS.
    ------------------------------------------------

 NO OUTPUT CONTROL FOR STRESS PERIOD   50   TIME STEP    1
 
 WELLS WITH REDUCED PUMPING FOR STRESS PERIOD    50 TIME STEP     1
   LAY   ROW   COL         APPL.Q          ACT.Q        GW-HEAD       CELL-BOT
     1     3    50  -0.870143E+00  -0.397128E+00   0.527404E+01   0.000000E+00
     1     5    55  -0.870143E+00  -0.315124E+00   0.451803E+01   0.000000E+00
 
 
 SOLVING FOR HEAD 
                                                   Max.-Head-Change                         Max.-Flux-Residual
  Residual-Control   Outer-Iter.   Inner-Iter.     Column Row Layer    Maximum-Head-Change  Column Row Layer    Maximum-Flux-Residual          L2-NORM 
          0                 1           2            50    3     1      -0.3240480135E+00      50    3    1        -0.1064536297E+00      0.1380820513E+00
          0                 2           2            50    3     1       0.3124691073E-01      50    3    1         0.1040876312E-01      0.1338055743E-01
          0                 3           2            50    3     1      -0.2777439913E-02      50    3    1        -0.9396008073E-03      0.1209084500E-02
          0                 4           2            50    3     1       0.2197114923E-03      50    3    1         0.7524125561E-04      0.9689688308E-04
          0                 5           1            50    3     1      -0.1528215538E-04      50    3    1        -0.5289514381E-05      0.6816055294E-05
          0                 6           1            50    3     1       0.9170570097E-06      50    3    1         0.3205230045E-06      0.4131559994E-06

    ------------------------------------------------
       NWT REQUIRED            6 OUTER ITERATIONS 
       AND A TOTAL OF         10 INNER ITERATIONS.
    ------------------------------------------------

 NO OUTPUT CONTROL FOR STRESS PERIOD   50   TIME STEP    2
 
 WELLS WITH REDUCED PUMPING FOR STRESS PERIOD    50 TIME STEP     2
   LAY   ROW   COL         APPL.Q          ACT.Q        GW-HEAD       CELL-BOT
     1     3    50  -0.870143E+00  -0.362961E+00   0.497867E+01   0.000000E+00
     1     5    55  -0.870143E+00  -0.287800E+00   0.427513E+01   0.000000E+00
 
 
 SOLVING FOR HEAD 
                                                   Max.-Head-Change                         Max.-Flux-Residual
  Residual-Control   Outer-Iter.   Inner-Iter.     Column Row Layer    Maximum-Head-Change  Column Row Layer    Maximum-Flux-Residual          L2-NORM 
          0                 1           2            50    3     1      -0.2031504290E+00      50    3    1        -0.6124142744E-01      0.8236765830E-01
          0                 2           2            50    3     1       0.1943736105E-01      50    3    1         0.5980402422E-02      0.7946853855E-02
          0                 3           2            50    3     1      -0.1718999094E-02      50    3    1        -0.5396839250E-03      0.7166361701E-03
          0                 4           2            50    3     1       0.1356089603E-03      50    3    1         0.4321796205E-04      0.5746627467E-04
          0                 5           1            50    3     1      -0.9418445954E-05      50    3    1        -0.3038245637E-05      0.4045304769E-05
          0                 6           1            50    3     1       0.5648034645E-06      50    3    1         0.1841052267E-06      0.2453287239E-06

    ------------------------------------------------
       NWT REQUIRED            6 OUTER ITERATIONS 
       AND A TOTAL OF         10 INNER ITERATIONS.
    ------------------------------------------------

 NO OUTPUT CONTROL FOR STRESS PERIOD   50   TIME STEP    3
 
 WELLS WITH REDUCED PUMPING FOR STRESS PERIOD    50 TIME STEP     3
   LAY   ROW   COL         APPL.Q          ACT.Q        GW-HEAD       CELL-BOT
     1     3    50  -0.869888E+00  -0.341618E+00   0.479336E+01   0.000000E+00
     1     5    55  -0.869888E+00  -0.270575E+00   0.412010E+01   0.000000E+00
 
 
 SOLVING FOR HEAD 
                                                   Max.-Head-Change                         Max.-Flux-Residual
  Residual-Control   Outer-Iter.   Inner-Iter.     Column Row Layer    Maximum-Head-Change  Column Row Layer    Maximum-Flux-Residual          L2-NORM 
          0                 1           2            50    3     1      -0.1281362901E+00      50    3    1        -0.3507967623E-01      0.5115993684E-01
          0                 2           2            50    3     1       0.1219034727E-01      50    3    1         0.3438965411E-02      0.4909291573E-02
          0                 3           2            50    3     1      -0.1071349308E-02      50    3    1        -0.3101695273E-03      0.4412060351E-03
          0                 4           1            50    3     1       0.8422294358E-04      50    3    1         0.2483969062E-04      0.3541708298E-04
          0                 5           1            50    3     1      -0.5837979937E-05      50    3    1        -0.1746229922E-05      0.2496897913E-05
          0                 6           1            50    3     1       0.3497522053E-06      50    3    1         0.1058141686E-06      0.1515996027E-06

    ------------------------------------------------
       NWT REQUIRED            6 OUTER ITERATIONS 
       AND A TOTAL OF          9 INNER ITERATIONS.
    ------------------------------------------------

 NO OUTPUT CONTROL FOR STRESS PERIOD   50   TIME STEP    4
 
 WELLS WITH REDUCED PUMPING FOR STRESS PERIOD    50 TIME STEP     4
   LAY   ROW   COL         APPL.Q          ACT.Q        GW-HEAD       CELL-BOT
     1     3    50  -0.870120E+00  -0.328408E+00   0.467642E+01   0.000000E+00
     1     5    55  -0.870120E+00  -0.259823E+00   0.402100E+01   0.000000E+00
 
 
 SOLVING FOR HEAD 
                                                   Max.-Head-Change                         Max.-Flux-Residual
  Residual-Control   Outer-Iter.   Inner-Iter.     Column Row Layer    Maximum-Head-Change  Column Row Layer    Maximum-Flux-Residual          L2-NORM 
          0                 1           2            50    3     1      -0.8177577844E-01      50    3    1        -0.2004977848E-01      0.3432398631E-01
          0                 2           2            50    3     1       0.7728622414E-02      50    3    1         0.1975706734E-02      0.3269989026E-02
          0                 3           2            50    3     1      -0.6740820805E-03      50    3    1        -0.1780952258E-03      0.2930238652E-03
          0                 4           1            50    3     1       0.5275509401E-04      50    3    1         0.1426336050E-04      0.2357898688E-04
          0                 5           1            50    3     1      -0.3647071037E-05      50    3    1        -0.1002702847E-05      0.1667313200E-05
          0                 6           1            50    3     1       0.2181946803E-06      50    3    1         0.6075918901E-07      0.1014751851E-06

    ------------------------------------------------
       NWT REQUIRED            6 OUTER ITERATIONS 
       AND A TOTAL OF          9 INNER ITERATIONS.
    ------------------------------------------------

 NO OUTPUT CONTROL FOR STRESS PERIOD   50   TIME STEP    5
 
 WELLS WITH REDUCED PUMPING FOR STRESS PERIOD    50 TIME STEP     5
   LAY   ROW   COL         APPL.Q          ACT.Q        GW-HEAD       CELL-BOT
     1     3    50  -0.870060E+00  -0.319940E+00   0.460175E+01   0.000000E+00
     1     5    55  -0.870060E+00  -0.252906E+00   0.395728E+01   0.000000E+00
 
 
 SOLVING FOR HEAD 
                                                   Max.-Head-Change                         Max.-Flux-Residual
  Residual-Control   Outer-Iter.   Inner-Iter.     Column Row Layer    Maximum-Head-Change  Column Row Layer    Maximum-Flux-Residual          L2-NORM 
          0                 1           2            50    2     1      -0.5409468709E-01      50    3    1        -0.1161185058E-01      0.2576479480E-01
          0                 2           2            50    2     1       0.5326431021E-02      50    3    1         0.1149908526E-02      0.2445930941E-02
          0                 3           2            50    2     1      -0.4738365791E-03      50    3    1        -0.1036047302E-03      0.2192353048E-03
          0                 4           1            50    2     1       0.3754836641E-04      50    3    1         0.8297914438E-05      0.1771687845E-04
          0                 5           1            50    2     1      -0.2613362515E-05      50    3    1        -0.5833269829E-06      0.1258537480E-05
          0                 6           1            50    2     1       0.1568561973E-06      50    3    1         0.3534649939E-07      0.7688356408E-07

    ------------------------------------------------
       NWT REQUIRED            6 OUTER ITERATIONS 
       AND A TOTAL OF          9 INNER ITERATIONS.
    ------------------------------------------------

 NO OUTPUT CONTROL FOR STRESS PERIOD   50   TIME STEP    6
 
 WELLS WITH REDUCED PUMPING FOR STRESS PERIOD    50 TIME STEP     6
   LAY   ROW   COL         APPL.Q          ACT.Q        GW-HEAD       CELL-BOT
     1     3    50  -0.869950E+00  -0.314370E+00   0.455265E+01   0.000000E+00
     1     5    55  -0.869950E+00  -0.248368E+00   0.391542E+01   0.000000E+00
 
 
 SOLVING FOR HEAD 
                                                   Max.-Head-Change                         Max.-Flux-Residual
  Residual-Control   Outer-Iter.   Inner-Iter.     Column Row Layer    Maximum-Head-Change  Column Row Layer    Maximum-Flux-Residual          L2-NORM 
          0                 1           2            50    2     1      -0.4930853092E-01      50    2    1        -0.6980486390E-02      0.2149147343E-01
          0                 2           2            50    2     1       0.4851267331E-02      50    2    1         0.6955991967E-03      0.2046400770E-02
          0                 3           2            50    2     1      -0.4315669682E-03      50    2    1        -0.6262934542E-04      0.1840885499E-03
          0                 4           1            50    2     1       0.3419615986E-04      50    2    1         0.5016402297E-05      0.1495326756E-04
          0                 5           1            50    2     1      -0.2379904970E-05      50    2    1        -0.3526495609E-06      0.1067587436E-05
          0                 6           1            50    2     1       0.1428370506E-06      50    2    1         0.2136916352E-07      0.6549620114E-07

    ------------------------------------------------
       NWT REQUIRED            6 OUTER ITERATIONS 
       AND A TOTAL OF          9 INNER ITERATIONS.
    ------------------------------------------------

 NO OUTPUT CONTROL FOR STRESS PERIOD   50   TIME STEP    7
 
 WELLS WITH REDUCED PUMPING FOR STRESS PERIOD    50 TIME STEP     7
   LAY   ROW   COL         APPL.Q          ACT.Q        GW-HEAD       CELL-BOT
     1     3    50  -0.869900E+00  -0.310552E+00   0.451881E+01   0.000000E+00
     1     5    55  -0.869900E+00  -0.245288E+00   0.388681E+01   0.000000E+00
 
 
 SOLVING FOR HEAD 
                                                   Max.-Head-Change                         Max.-Flux-Residual
  Residual-Control   Outer-Iter.   Inner-Iter.     Column Row Layer    Maximum-Head-Change  Column Row Layer    Maximum-Flux-Residual          L2-NORM 
          0                 1           2            50    2     1      -0.4455878544E-01      50    2    1        -0.5784889708E-02      0.1922725881E-01
          0                 2           2            50    2     1       0.4382122480E-02      50    2    1         0.5760760236E-03      0.1841020747E-02
          0                 3           2            50    2     1      -0.3898037196E-03      50    2    1        -0.5187140991E-04      0.1664544630E-03
          0                 4           1            50    2     1       0.3088428982E-04      50    2    1         0.4154700068E-05      0.1358760719E-04
          0                 5           1            50    2     1      -0.2149260077E-05      50    2    1        -0.2920726693E-06      0.9746321559E-06
          0                 6           1            50    2     1       0.1289870909E-06      50    2    1         0.1769844310E-07      0.6004009830E-07

    ------------------------------------------------
       NWT REQUIRED            6 OUTER ITERATIONS 
       AND A TOTAL OF          9 INNER ITERATIONS.
    ------------------------------------------------

 NO OUTPUT CONTROL FOR STRESS PERIOD   50   TIME STEP    8
 
 WELLS WITH REDUCED PUMPING FOR STRESS PERIOD    50 TIME STEP     8
   LAY   ROW   COL         APPL.Q          ACT.Q        GW-HEAD       CELL-BOT
     1     3    50  -0.869923E+00  -0.307789E+00   0.449409E+01   0.000000E+00
     1     5    55  -0.869923E+00  -0.243094E+00   0.386622E+01   0.000000E+00
 
 
 SOLVING FOR HEAD 
                                                   Max.-Head-Change                         Max.-Flux-Residual
  Residual-Control   Outer-Iter.   Inner-Iter.     Column Row Layer    Maximum-Head-Change  Column Row Layer    Maximum-Flux-Residual          L2-NORM 
          0                 1           2            50    2     1      -0.4022622135E-01      50    2    1        -0.4752602215E-02      0.1790490716E-01
          0                 2           2            50    2     1       0.3955256587E-02      50    2    1         0.4732050965E-03      0.1722729805E-02
          0                 3           2            50    2     1      -0.3517820108E-03      50    2    1        -0.4260922785E-04      0.1563607983E-03
          0                 4           1            50    2     1       0.2786885348E-04      50    2    1         0.3412830704E-05      0.1282084005E-04
          0                 5           1            50    2     1      -0.1939243949E-05      50    2    1        -0.2399197689E-06      0.9236703235E-06
          0                 6           1            50    2     1       0.1163753394E-06      50    2    1         0.1453818475E-07      0.5712551829E-07

    ------------------------------------------------
       NWT REQUIRED            6 OUTER ITERATIONS 
       AND A TOTAL OF          9 INNER ITERATIONS.
    ------------------------------------------------

 NO OUTPUT CONTROL FOR STRESS PERIOD   50   TIME STEP    9
 
 WELLS WITH REDUCED PUMPING FOR STRESS PERIOD    50 TIME STEP     9
   LAY   ROW   COL         APPL.Q          ACT.Q        GW-HEAD       CELL-BOT
     1     3    50  -0.869964E+00  -0.305664E+00   0.447496E+01   0.000000E+00
     1     5    55  -0.869964E+00  -0.241437E+00   0.385058E+01   0.000000E+00
 
 
 SOLVING FOR HEAD 
                                                   Max.-Head-Change                         Max.-Flux-Residual
  Residual-Control   Outer-Iter.   Inner-Iter.     Column Row Layer    Maximum-Head-Change  Column Row Layer    Maximum-Flux-Residual          L2-NORM 
          0                 1           2            50    2     1      -0.3644232126E-01      50    2    1        -0.3900521398E-02      0.1704380723E-01
          0                 2           2            50    2     1       0.3581951106E-02      50    2    1         0.3884169260E-03      0.1645742414E-02
          0                 3           2            50    2     1      -0.3185457514E-03      50    2    1        -0.3497403439E-04      0.1498201949E-03
          0                 4           1            50    2     1       0.2523412560E-04      50    2    1         0.2801286542E-05      0.1233059408E-04
          0                 5           1            50    2     1      -0.1755789638E-05      50    2    1        -0.1969285835E-06      0.8920264454E-06
          0                 6           1            50    2     1       0.1053601371E-06      50    2    1         0.1193308914E-07      0.5538989715E-07

    ------------------------------------------------
       NWT REQUIRED            6 OUTER ITERATIONS 
       AND A TOTAL OF          9 INNER ITERATIONS.
    ------------------------------------------------

 NO OUTPUT CONTROL FOR STRESS PERIOD   50   TIME STEP   10
 
 WELLS WITH REDUCED PUMPING FOR STRESS PERIOD    50 TIME STEP    10
   LAY   ROW   COL         APPL.Q          ACT.Q        GW-HEAD       CELL-BOT
     1     3    50  -0.869926E+00  -0.303924E+00   0.445951E+01   0.000000E+00
     1     5    55  -0.869926E+00  -0.240107E+00   0.383818E+01   0.000000E+00
 
 
 SOLVING FOR HEAD 
                                                   Max.-Head-Change                         Max.-Flux-Residual
  Residual-Control   Outer-Iter.   Inner-Iter.     Column Row Layer    Maximum-Head-Change  Column Row Layer    Maximum-Flux-Residual          L2-NORM 
          0                 1           2            50    1     1      -0.3431542962E-01      50    2    1        -0.3212487159E-02      0.1645480403E-01
          0                 2           2            50    1     1       0.3391738820E-02      50    2    1         0.3200040850E-03      0.1592412122E-02
          0                 3           2            50    1     1      -0.3023173372E-03      50    2    1        -0.2881298437E-04      0.1452905526E-03
          0                 4           1            50    1     1       0.2398601765E-04      50    2    1         0.2307817783E-05      0.1199934998E-04
          0                 5           1            50    1     1      -0.1670257891E-05      50    2    1        -0.1622380074E-06      0.8715143877E-06
          0                 6           1            50    1     1       0.1002650050E-06      50    2    1         0.9830978920E-08      0.5433028382E-07

    ------------------------------------------------
       NWT REQUIRED            6 OUTER ITERATIONS 
       AND A TOTAL OF          9 INNER ITERATIONS.
    ------------------------------------------------

 NO OUTPUT CONTROL FOR STRESS PERIOD   50   TIME STEP   11
 
 WELLS WITH REDUCED PUMPING FOR STRESS PERIOD    50 TIME STEP    11
   LAY   ROW   COL         APPL.Q          ACT.Q        GW-HEAD       CELL-BOT
     1     3    50  -0.870029E+00  -0.302484E+00   0.444629E+01   0.000000E+00
     1     5    55  -0.870029E+00  -0.239025E+00   0.382773E+01   0.000000E+00
 
 
 SOLVING FOR HEAD 
                                                   Max.-Head-Change                         Max.-Flux-Residual
  Residual-Control   Outer-Iter.   Inner-Iter.     Column Row Layer    Maximum-Head-Change  Column Row Layer    Maximum-Flux-Residual          L2-NORM 
          0                 1           2            50    1     1      -0.3384333228E-01      50    1    1        -0.2748526315E-02      0.1605917595E-01
          0                 2           2            50    1     1       0.3343735997E-02      50    1    1         0.2743180741E-03      0.1553282318E-02
          0                 3           2            50    1     1      -0.2980210979E-03      50    1    1        -0.2469395300E-04      0.1416897174E-03
          0                 4           1            50    1     1       0.2364357356E-04      50    1    1         0.1977943395E-05      0.1172068662E-04
          0                 5           1            50    1     1      -0.1646195415E-05      50    1    1        -0.1389987372E-06      0.8538832513E-06
          0                 6           1            50    1     1       0.9880823121E-07      50    1    1         0.8419626607E-08      0.5344080173E-07

    ------------------------------------------------
       NWT REQUIRED            6 OUTER ITERATIONS 
       AND A TOTAL OF          9 INNER ITERATIONS.
    ------------------------------------------------

 NO OUTPUT CONTROL FOR STRESS PERIOD   50   TIME STEP   12
 
 WELLS WITH REDUCED PUMPING FOR STRESS PERIOD    50 TIME STEP    12
   LAY   ROW   COL         APPL.Q          ACT.Q        GW-HEAD       CELL-BOT
     1     3    50  -0.870044E+00  -0.301207E+00   0.443479E+01   0.000000E+00
     1     5    55  -0.870044E+00  -0.238080E+00   0.381879E+01   0.000000E+00
 
 
 SOLVING FOR HEAD 
                                                   Max.-Head-Change                         Max.-Flux-Residual
  Residual-Control   Outer-Iter.   Inner-Iter.     Column Row Layer    Maximum-Head-Change  Column Row Layer    Maximum-Flux-Residual          L2-NORM 
          0                 1           2            50    1     1      -0.3294192606E-01      50    1    1        -0.2464382023E-02      0.1586617192E-01
          0                 2           2            50    1     1       0.3253412804E-02      50    1    1         0.2458739500E-03      0.1529408120E-02
          0                 3           2            50    1     1      -0.2899418617E-03      50    1    1        -0.2213425854E-04      0.1392009162E-03
          0                 4           1            50    1     1       0.2300054668E-04      50    1    1         0.1772909622E-05      0.1152528760E-04
          0                 5           1            50    1     1      -0.1601125279E-05      50    1    1        -0.1245691157E-06      0.8422605685E-06
          0                 6           1            50    1     1       0.9608569710E-07      50    1    1         0.7544163821E-08      0.5293949981E-07

    ------------------------------------------------
       NWT REQUIRED            6 OUTER ITERATIONS 
       AND A TOTAL OF          9 INNER ITERATIONS.
    ------------------------------------------------

 NO OUTPUT CONTROL FOR STRESS PERIOD   50   TIME STEP   13
 
 WELLS WITH REDUCED PUMPING FOR STRESS PERIOD    50 TIME STEP    13
   LAY   ROW   COL         APPL.Q          ACT.Q        GW-HEAD       CELL-BOT
     1     3    50  -0.870044E+00  -0.300059E+00   0.442449E+01   0.000000E+00
     1     5    55  -0.870044E+00  -0.237247E+00   0.381095E+01   0.000000E+00
 
 
 SOLVING FOR HEAD 
                                                   Max.-Head-Change                         Max.-Flux-Residual
  Residual-Control   Outer-Iter.   Inner-Iter.     Column Row Layer    Maximum-Head-Change  Column Row Layer    Maximum-Flux-Residual          L2-NORM 
          0                 1           2            50    1     1      -0.3173345960E-01      50    1    1        -0.2180758907E-02      0.1570291404E-01
          0                 2           2            50    1     1       0.3132088898E-02      50    1    1         0.2175279631E-03      0.1517826541E-02
          0                 3           2            50    1     1      -0.2790825266E-03      50    1    1        -0.1958296374E-04      0.1384895902E-03
          0                 4           1            50    1     1       0.2213788231E-04      50    1    1         0.1568552097E-05      0.1150257665E-04
          0                 5           1            50    1     1      -0.1540813249E-05      50    1    1        -0.1101849608E-06      0.8436549259E-06
          0                 6           1            50    1     1       0.9245007758E-07      50    1    1         0.6671305203E-08      0.5323572938E-07

    ------------------------------------------------
       NWT REQUIRED            6 OUTER ITERATIONS 
       AND A TOTAL OF          9 INNER ITERATIONS.
    ------------------------------------------------

 NO OUTPUT CONTROL FOR STRESS PERIOD   50   TIME STEP   14
 
 WELLS WITH REDUCED PUMPING FOR STRESS PERIOD    50 TIME STEP    14
   LAY   ROW   COL         APPL.Q          ACT.Q        GW-HEAD       CELL-BOT
     1     3    50  -0.870018E+00  -0.299009E+00   0.441514E+01   0.000000E+00
     1     5    55  -0.870018E+00  -0.236493E+00   0.380390E+01   0.000000E+00
 
 
 SOLVING FOR HEAD 
                                                   Max.-Head-Change                         Max.-Flux-Residual
  Residual-Control   Outer-Iter.   Inner-Iter.     Column Row Layer    Maximum-Head-Change  Column Row Layer    Maximum-Flux-Residual          L2-NORM 
          0                 1           2            50    1     1      -0.3032967807E-01      50    1    1        -0.1909897199E-02      0.1556403184E-01
          0                 2           2            50    1     1       0.2992230086E-02      50    1    1         0.1904870028E-03      0.1506156405E-02
          0                 3           2            50    1     1      -0.2665455184E-03      50    1    1        -0.1714882838E-04      0.1376027024E-03
          0                 4           1            50    1     1       0.2114006012E-04      50    1    1         0.1373581376E-05      0.1145801802E-04
          0                 5           1            50    1     1      -0.1470892039E-05      50    1    1        -0.9645732160E-07      0.8431333260E-06
          0                 6           1            50    1     1       0.8822746057E-07      50    1    1         0.5838013184E-08      0.5340094765E-07

    ------------------------------------------------
       NWT REQUIRED            6 OUTER ITERATIONS 
       AND A TOTAL OF          9 INNER ITERATIONS.
    ------------------------------------------------

 NO OUTPUT CONTROL FOR STRESS PERIOD   50   TIME STEP   15
 
 WELLS WITH REDUCED PUMPING FOR STRESS PERIOD    50 TIME STEP    15
   LAY   ROW   COL         APPL.Q          ACT.Q        GW-HEAD       CELL-BOT
     1     3    50  -0.870018E+00  -0.298043E+00   0.440646E+01   0.000000E+00
     1     5    55  -0.870018E+00  -0.235804E+00   0.379739E+01   0.000000E+00
 
 
 SOLVING FOR HEAD 
                                                   Max.-Head-Change                         Max.-Flux-Residual
  Residual-Control   Outer-Iter.   Inner-Iter.     Column Row Layer    Maximum-Head-Change  Column Row Layer    Maximum-Flux-Residual          L2-NORM 
          0                 1           2            50    1     1      -0.2882378277E-01      50    1    1        -0.1659531436E-02      0.1545027003E-01
          0                 2           2            50    1     1       0.2842267895E-02      50    1    1         0.1655101790E-03      0.1496009606E-02
          0                 3           2            50    1     1      -0.2530965713E-03      50    1    1        -0.1490032691E-04      0.1367716292E-03
          0                 4           1            50    1     1       0.2006831543E-04      50    1    1         0.1193481033E-05      0.1141346987E-04
          0                 5           1            50    1     1      -0.1395632419E-05      50    1    1        -0.8377163541E-07      0.8423813119E-06
          0                 6           1            50    1     1       0.8367400430E-07      50    1    1         0.5067610359E-08      0.5354364572E-07

    ------------------------------------------------
       NWT REQUIRED            6 OUTER ITERATIONS 
       AND A TOTAL OF          9 INNER ITERATIONS.
    ------------------------------------------------

 NO OUTPUT CONTROL FOR STRESS PERIOD   50   TIME STEP   16
 
 WELLS WITH REDUCED PUMPING FOR STRESS PERIOD    50 TIME STEP    16
   LAY   ROW   COL         APPL.Q          ACT.Q        GW-HEAD       CELL-BOT
     1     3    50  -0.870018E+00  -0.297129E+00   0.439824E+01   0.000000E+00
     1     5    55  -0.870018E+00  -0.235162E+00   0.379132E+01   0.000000E+00
 
 
 SOLVING FOR HEAD 
                                                   Max.-Head-Change                         Max.-Flux-Residual
  Residual-Control   Outer-Iter.   Inner-Iter.     Column Row Layer    Maximum-Head-Change  Column Row Layer    Maximum-Flux-Residual          L2-NORM 
          0                 1           2            50    1     1      -0.2730102646E-01      50    1    1        -0.1433824031E-02      0.1537923572E-01
          0                 2           2            50    1     1       0.2690089483E-02      50    1    1         0.1430039741E-03      0.1488011979E-02
          0                 3           2            50    1     1      -0.2394120982E-03      50    1    1        -0.1287413873E-04      0.1360792031E-03
          0                 4           1            50    1     1       0.1897600542E-04      50    1    1         0.1031188319E-05      0.1137829540E-04
          0                 5           1            50    1     1      -0.1318754705E-05      50    1    1        -0.7233423752E-07      0.8421251954E-06
          0                 6           1            50    1     1       0.7901320868E-07      18    4    1        -0.4959280986E-08      0.5370889982E-07

    ------------------------------------------------
       NWT REQUIRED            6 OUTER ITERATIONS 
       AND A TOTAL OF          9 INNER ITERATIONS.
    ------------------------------------------------

 NO OUTPUT CONTROL FOR STRESS PERIOD   50   TIME STEP   17
 
 WELLS WITH REDUCED PUMPING FOR STRESS PERIOD    50 TIME STEP    17
   LAY   ROW   COL         APPL.Q          ACT.Q        GW-HEAD       CELL-BOT
     1     3    50  -0.870038E+00  -0.296254E+00   0.439030E+01   0.000000E+00
     1     5    55  -0.870038E+00  -0.234553E+00   0.378551E+01   0.000000E+00
 
 
 SOLVING FOR HEAD 
                                                   Max.-Head-Change                         Max.-Flux-Residual
  Residual-Control   Outer-Iter.   Inner-Iter.     Column Row Layer    Maximum-Head-Change  Column Row Layer    Maximum-Flux-Residual          L2-NORM 
          0                 1           2            50    1     1      -0.2581490863E-01      50    1    1        -0.1234700235E-02      0.1531472282E-01
          0                 2           2            50    1     1       0.2541935609E-02      50    1    1         0.1231528128E-03      0.1482683734E-02
          0                 3           2            50    1     1      -0.2261014919E-03      50    1    1        -0.1108693408E-04      0.1356665454E-03
          0                 4           1            50    1     1       0.1791360273E-04      50    1    1         0.8880379800E-06      0.1136413767E-04
          0                 5           1            50    1     1      -0.1243823785E-05      18    4    1         0.6725757729E-07      0.8430724342E-06
          0                 6           1            50    1     1       0.7445926700E-07      18    4    1        -0.5085555088E-08      0.5393210674E-07

    ------------------------------------------------
       NWT REQUIRED            6 OUTER ITERATIONS 
       AND A TOTAL OF          9 INNER ITERATIONS.
    ------------------------------------------------

 NO OUTPUT CONTROL FOR STRESS PERIOD   50   TIME STEP   18
 
 WELLS WITH REDUCED PUMPING FOR STRESS PERIOD    50 TIME STEP    18
   LAY   ROW   COL         APPL.Q          ACT.Q        GW-HEAD       CELL-BOT
     1     3    50  -0.870029E+00  -0.295405E+00   0.438269E+01   0.000000E+00
     1     5    55  -0.870029E+00  -0.233969E+00   0.378001E+01   0.000000E+00
 
 
 SOLVING FOR HEAD 
                                                   Max.-Head-Change                         Max.-Flux-Residual
  Residual-Control   Outer-Iter.   Inner-Iter.     Column Row Layer    Maximum-Head-Change  Column Row Layer    Maximum-Flux-Residual          L2-NORM 
          0                 1           2             1    1     1      -0.2587706013E-01      50    1    1        -0.1061420803E-02      0.1528291096E-01
          0                 2           2             1    1     1       0.2440315058E-02      50    1    1         0.1058807320E-03      0.1478449567E-02
          0                 3           2            50    1     1      -0.2134136491E-03      50    1    1        -0.9531904791E-05      0.1353118960E-03
          0                 4           1            50    1     1       0.1689708288E-04      50    1    1         0.7634844139E-06      0.1135454401E-04
          0                 5           1            50    1     1      -0.1171779849E-05      18    4    1         0.6853595025E-07      0.8441793614E-06
          0                 6           1            50    1     1       0.7006219253E-07      18    4    1        -0.5205672338E-08      0.5415247543E-07

    ------------------------------------------------
       NWT REQUIRED            6 OUTER ITERATIONS 
       AND A TOTAL OF          9 INNER ITERATIONS.
    ------------------------------------------------

 NO OUTPUT CONTROL FOR STRESS PERIOD   50   TIME STEP   19
 
 WELLS WITH REDUCED PUMPING FOR STRESS PERIOD    50 TIME STEP    19
   LAY   ROW   COL         APPL.Q          ACT.Q        GW-HEAD       CELL-BOT
     1     3    50  -0.869981E+00  -0.294561E+00   0.437523E+01   0.000000E+00
     1     5    55  -0.869981E+00  -0.233386E+00   0.377461E+01   0.000000E+00
 
 
 SOLVING FOR HEAD 
                                                   Max.-Head-Change                         Max.-Flux-Residual
  Residual-Control   Outer-Iter.   Inner-Iter.     Column Row Layer    Maximum-Head-Change  Column Row Layer    Maximum-Flux-Residual          L2-NORM 
          0                 1           2             1    1     1      -0.2843652129E-01       1    5    1        -0.9710002408E-03      0.1526899116E-01
          0                 2           2             1    1     1       0.2676505954E-02       1    3    1         0.9709665343E-04      0.1476657146E-02
          0                 3           2             1    1     1      -0.2267538363E-03       1    3    1        -0.8738998435E-05      0.1351550249E-03
          0                 4           1             1    1     1       0.1709918145E-04       1    5    1         0.6999905526E-06      0.1135780529E-04
          0                 5           1             1    1     1      -0.1127808575E-05      18    4    1         0.6974191002E-07      0.8457870140E-06
          0                 6           1            50    1     1       0.6601740281E-07      18    4    1        -0.5318991469E-08      0.5438095564E-07

    ------------------------------------------------
       NWT REQUIRED            6 OUTER ITERATIONS 
       AND A TOTAL OF          9 INNER ITERATIONS.
    ------------------------------------------------

 NO OUTPUT CONTROL FOR STRESS PERIOD   50   TIME STEP   20
 
 WELLS WITH REDUCED PUMPING FOR STRESS PERIOD    50 TIME STEP    20
   LAY   ROW   COL         APPL.Q          ACT.Q        GW-HEAD       CELL-BOT
     1     3    50  -0.869974E+00  -0.293715E+00   0.436762E+01   0.000000E+00
     1     5    55  -0.869974E+00  -0.232804E+00   0.376911E+01   0.000000E+00
 
 
 SOLVING FOR HEAD 
                                                   Max.-Head-Change                         Max.-Flux-Residual
  Residual-Control   Outer-Iter.   Inner-Iter.     Column Row Layer    Maximum-Head-Change  Column Row Layer    Maximum-Flux-Residual          L2-NORM 
          0                 1           2             1    1     1      -0.3124750740E-01       1    7    1        -0.9701641491E-03      0.1524964809E-01
          0                 2           2             1    1     1       0.2935624086E-02       1    7    1         0.9701423037E-04      0.1476116764E-02
          0                 3           2             1    1     1      -0.2481438104E-03       1    7    1        -0.8731498202E-05      0.1351539148E-03
          0                 4           1             1    1     1       0.1865923958E-04       1    7    1         0.6993901844E-06      0.1137159933E-04
          0                 5           1             1    1     1      -0.1224494474E-05      19    4    1         0.6965029620E-07      0.8475721262E-06
          0                 6           1             1    1     1       0.6928339378E-07      19    4    1        -0.5303522954E-08      0.5458342540E-07

    ------------------------------------------------
       NWT REQUIRED            6 OUTER ITERATIONS 
       AND A TOTAL OF          9 INNER ITERATIONS.
    ------------------------------------------------

 NO OUTPUT CONTROL FOR STRESS PERIOD   50   TIME STEP   21
 
 WELLS WITH REDUCED PUMPING FOR STRESS PERIOD    50 TIME STEP    21
   LAY   ROW   COL         APPL.Q          ACT.Q        GW-HEAD       CELL-BOT
     1     3    50  -0.870000E+00  -0.292896E+00   0.436015E+01   0.000000E+00
     1     5    55  -0.870000E+00  -0.232249E+00   0.376378E+01   0.000000E+00
 
 
 SOLVING FOR HEAD 
                                                   Max.-Head-Change                         Max.-Flux-Residual
  Residual-Control   Outer-Iter.   Inner-Iter.     Column Row Layer    Maximum-Head-Change  Column Row Layer    Maximum-Flux-Residual          L2-NORM 
          0                 1           2             1    1     1      -0.3433466080E-01       1    7    1        -0.9693054715E-03      0.1524113775E-01
          0                 2           2             1    1     1       0.3219926155E-02       1    1    1         0.9692806922E-04      0.1475331428E-02
          0                 3           2             1    1     1      -0.2715805860E-03       1    1    1        -0.8723772401E-05      0.1350915110E-03
          0                 4           1             1    1     1       0.2036426311E-04      19    4    1        -0.7058343598E-06      0.1137871724E-04
          0                 5           1             1    1     1      -0.1328789823E-05      19    4    1         0.7098299371E-07      0.8483763051E-06
          0                 6           1             1    1     1       0.7469633581E-07      19    4    1        -0.5422437610E-08      0.5469101967E-07

    ------------------------------------------------
       NWT REQUIRED            6 OUTER ITERATIONS 
       AND A TOTAL OF          9 INNER ITERATIONS.
    ------------------------------------------------

 NO OUTPUT CONTROL FOR STRESS PERIOD   50   TIME STEP   22
 
 WELLS WITH REDUCED PUMPING FOR STRESS PERIOD    50 TIME STEP    22
   LAY   ROW   COL         APPL.Q          ACT.Q        GW-HEAD       CELL-BOT
     1     3    50  -0.869994E+00  -0.292083E+00   0.435283E+01   0.000000E+00
     1     5    55  -0.869994E+00  -0.231701E+00   0.375859E+01   0.000000E+00
 
 
 SOLVING FOR HEAD 
                                                   Max.-Head-Change                         Max.-Flux-Residual
  Residual-Control   Outer-Iter.   Inner-Iter.     Column Row Layer    Maximum-Head-Change  Column Row Layer    Maximum-Flux-Residual          L2-NORM 
          0                 1           2             1    1     1      -0.3772466070E-01       1    7    1        -0.9683925079E-03      0.1524927494E-01
          0                 2           2             1    1     1       0.3531852419E-02       1    1    1         0.9683644477E-04      0.1475120152E-02
          0                 3           2             1    1     1      -0.2972632311E-03       1    7    1        -0.8715558049E-05      0.1350597047E-03
          0                 4           1             1    1     1       0.2222795601E-04      19    4    1        -0.7142071023E-06      0.1138899344E-04
          0                 5           1             1    1     1      -0.1440934807E-05      19    4    1         0.7203989227E-07      0.8489869292E-06
          0                 6           1             1    1     1       0.8039575504E-07      19    4    1        -0.5509622980E-08      0.5475597878E-07

    ------------------------------------------------
       NWT REQUIRED            6 OUTER ITERATIONS 
       AND A TOTAL OF          9 INNER ITERATIONS.
    ------------------------------------------------

 NO OUTPUT CONTROL FOR STRESS PERIOD   50   TIME STEP   23
 
 WELLS WITH REDUCED PUMPING FOR STRESS PERIOD    50 TIME STEP    23
   LAY   ROW   COL         APPL.Q          ACT.Q        GW-HEAD       CELL-BOT
     1     3    50  -0.870016E+00  -0.291256E+00   0.434529E+01   0.000000E+00
     1     5    55  -0.870016E+00  -0.231134E+00   0.375315E+01   0.000000E+00
 
 
 SOLVING FOR HEAD 
                                                   Max.-Head-Change                         Max.-Flux-Residual
  Residual-Control   Outer-Iter.   Inner-Iter.     Column Row Layer    Maximum-Head-Change  Column Row Layer    Maximum-Flux-Residual          L2-NORM 
          0                 1           2             1    1     1      -0.4144659496E-01       1    7    1        -0.9674179860E-03      0.1525874795E-01
          0                 2           2             1    1     1       0.3874061847E-02       1    1    1         0.9673862505E-04      0.1475975002E-02
          0                 3           2             1    1     1      -0.3254085705E-03       1    7    1        -0.8706789560E-05      0.1351449682E-03
          0                 4           1             1    1     1       0.2426507015E-04      20    4    1        -0.7089558505E-06      0.1140811184E-04
          0                 5           1             1    1     1      -0.1560998849E-05      20    4    1         0.7188985229E-07      0.8495320884E-06
          0                 6           1             1    1     1       0.8633569505E-07      20    4    1        -0.5532283964E-08      0.5477029216E-07

    ------------------------------------------------
       NWT REQUIRED            6 OUTER ITERATIONS 
       AND A TOTAL OF          9 INNER ITERATIONS.
    ------------------------------------------------

 NO OUTPUT CONTROL FOR STRESS PERIOD   50   TIME STEP   24
 
 WELLS WITH REDUCED PUMPING FOR STRESS PERIOD    50 TIME STEP    24
   LAY   ROW   COL         APPL.Q          ACT.Q        GW-HEAD       CELL-BOT
     1     3    50  -0.869996E+00  -0.290381E+00   0.433744E+01   0.000000E+00
     1     5    55  -0.869996E+00  -0.230531E+00   0.374747E+01   0.000000E+00
 
 
 SOLVING FOR HEAD 
                                                   Max.-Head-Change                         Max.-Flux-Residual
  Residual-Control   Outer-Iter.   Inner-Iter.     Column Row Layer    Maximum-Head-Change  Column Row Layer    Maximum-Flux-Residual          L2-NORM 
          0                 1           2             1    1     1      -0.4553404757E-01       1    7    1        -0.9663725084E-03      0.1526078458E-01
          0                 2           2             1    1     1       0.4250300001E-02       1    1    1         0.9663368981E-04      0.1477408029E-02
          0                 3           2             6    7     1      -0.3573378090E-03       1    7    1        -0.8697383494E-05      0.1351982071E-03
          0                 4           1             7    7     1       0.2667834363E-04      19    4    1        -0.7107855513E-06      0.1140798465E-04
          0                 5           1             4    1     1      -0.1691917186E-05      19    4    1         0.7240743294E-07      0.8465037714E-06
          0                 6           1             4    1     1       0.9245442753E-07      19    4    1        -0.5547150295E-08      0.5443792920E-07

    ------------------------------------------------
       NWT REQUIRED            6 OUTER ITERATIONS 
       AND A TOTAL OF          9 INNER ITERATIONS.
    ------------------------------------------------

 NO OUTPUT CONTROL FOR STRESS PERIOD   50   TIME STEP   25
 
 WELLS WITH REDUCED PUMPING FOR STRESS PERIOD    50 TIME STEP    25
   LAY   ROW   COL         APPL.Q          ACT.Q        GW-HEAD       CELL-BOT
     1     3    50  -0.870009E+00  -0.289536E+00   0.432977E+01   0.000000E+00
     1     5    55  -0.870009E+00  -0.229960E+00   0.374201E+01   0.000000E+00
 
 
 SOLVING FOR HEAD 
                                                   Max.-Head-Change                         Max.-Flux-Residual
  Residual-Control   Outer-Iter.   Inner-Iter.     Column Row Layer    Maximum-Head-Change  Column Row Layer    Maximum-Flux-Residual          L2-NORM 
          0                 1           2             5    4     1      -0.5213567512E-01       1    7    1        -0.9652712610E-03      0.1541010077E-01
          0                 2           2             4    1     1       0.4791561271E-02       1    3    1         0.9653918011E-04      0.1483487852E-02
          0                 3           2             4    1     1      -0.4028663175E-03       1    5    1        -0.8688880538E-05      0.1347738815E-03
          0                 4           1             4    1     1       0.3000767682E-04      20    4    1        -0.7107513991E-06      0.1130776835E-04
          0                 5           1             4    1     1      -0.1902865787E-05      20    4    1         0.7295729709E-07      0.8325038472E-06
          0                 6           1             3    1     1       0.1029780625E-06      20    4    1        -0.5648301382E-08      0.5326742196E-07

    ------------------------------------------------
       NWT REQUIRED            6 OUTER ITERATIONS 
       AND A TOTAL OF          9 INNER ITERATIONS.
    ------------------------------------------------

 NO OUTPUT CONTROL FOR STRESS PERIOD   50   TIME STEP   26
 
 WELLS WITH REDUCED PUMPING FOR STRESS PERIOD    50 TIME STEP    26
   LAY   ROW   COL         APPL.Q          ACT.Q        GW-HEAD       CELL-BOT
     1     3    50  -0.870005E+00  -0.288686E+00   0.432208E+01   0.000000E+00
     1     5    55  -0.870005E+00  -0.229390E+00   0.373659E+01   0.000000E+00
 
 
 SOLVING FOR HEAD 
                                                   Max.-Head-Change                         Max.-Flux-Residual
  Residual-Control   Outer-Iter.   Inner-Iter.     Column Row Layer    Maximum-Head-Change  Column Row Layer    Maximum-Flux-Residual          L2-NORM 
          0                 1           3             1    4     1      -0.5709307107E-01       5    5    1        -0.9972014227E-03      0.1551835751E-01
          0                 2           2             1    1     1       0.5318130951E-02       5    5    1         0.9971155478E-04      0.1498429894E-02
          0                 3           2             1    1     1      -0.4467880644E-03       4    3    1        -0.8975455771E-05      0.1363526012E-03
          0                 4           1             1    1     1       0.3322111129E-04       4    3    1         0.7191023492E-06      0.1145228030E-04
          0                 5           1             3    1     1      -0.2082354668E-05      26    4    1         0.6874408243E-07      0.8390419120E-06
          0                 6           1             1    1     1       0.1112975660E-06      26    4    1        -0.5305775375E-08      0.5347564126E-07

    ------------------------------------------------
       NWT REQUIRED            6 OUTER ITERATIONS 
       AND A TOTAL OF         10 INNER ITERATIONS.
    ------------------------------------------------

 NO OUTPUT CONTROL FOR STRESS PERIOD   50   TIME STEP   27
 
 WELLS WITH REDUCED PUMPING FOR STRESS PERIOD    50 TIME STEP    27
   LAY   ROW   COL         APPL.Q          ACT.Q        GW-HEAD       CELL-BOT
     1     3    50  -0.870001E+00  -0.287808E+00   0.431414E+01   0.000000E+00
     1     5    55  -0.870001E+00  -0.228796E+00   0.373094E+01   0.000000E+00
 
 
 SOLVING FOR HEAD 
                                                   Max.-Head-Change                         Max.-Flux-Residual
  Residual-Control   Outer-Iter.   Inner-Iter.     Column Row Layer    Maximum-Head-Change  Column Row Layer    Maximum-Flux-Residual          L2-NORM 
          0                 1           3             1    1     1      -0.6251939268E-01       1    5    1        -0.1000089190E-02      0.1559421838E-01
          0                 2           2             1    1     1       0.5848448876E-02       1    5    1         0.1000002566E-03      0.1506203373E-02
          0                 3           2             1    1     1      -0.4908402171E-03       1    5    1        -0.9000658896E-05      0.1370666961E-03
          0                 4           1             1    1     1       0.3641959268E-04       1    5    1         0.7209448647E-06      0.1151564928E-04
          0                 5           1             1    1     1      -0.2248019020E-05      20    4    1         0.6984061329E-07      0.8378863593E-06
          0                 6           1             1    1     1       0.1181899259E-06      20    4    1        -0.5491036958E-08      0.5312368545E-07

    ------------------------------------------------
       NWT REQUIRED            6 OUTER ITERATIONS 
       AND A TOTAL OF         10 INNER ITERATIONS.
    ------------------------------------------------

 NO OUTPUT CONTROL FOR STRESS PERIOD   50   TIME STEP   28
 
 WELLS WITH REDUCED PUMPING FOR STRESS PERIOD    50 TIME STEP    28
   LAY   ROW   COL         APPL.Q          ACT.Q        GW-HEAD       CELL-BOT
     1     3    50  -0.869985E+00  -0.286823E+00   0.430526E+01   0.000000E+00
     1     5    55  -0.869985E+00  -0.228093E+00   0.372428E+01   0.000000E+00
 
 
 SOLVING FOR HEAD 
                                                   Max.-Head-Change                         Max.-Flux-Residual
  Residual-Control   Outer-Iter.   Inner-Iter.     Column Row Layer    Maximum-Head-Change  Column Row Layer    Maximum-Flux-Residual          L2-NORM 
          0                 1           3             1    1     1      -0.6865864102E-01       1    5    1        -0.9962611244E-03      0.1562240815E-01
          0                 2           2             1    1     1       0.6416170815E-02       1    5    1         0.9961828080E-04      0.1511293500E-02
          0                 3           2             1    1     1      -0.5377554511E-03       1    5    1        -0.8966325002E-05      0.1375758820E-03
          0                 4           1             1    1     1       0.3979309899E-04       1    3    1         0.7181940092E-06      0.1156076595E-04
          0                 5           1             3    1     1      -0.2410481209E-05      20    4    1         0.7079608011E-07      0.8338677581E-06
          0                 6           1             1    1     1       0.1239537917E-06      20    4    1        -0.5534403158E-08      0.5254178951E-07

    ------------------------------------------------
       NWT REQUIRED            6 OUTER ITERATIONS 
       AND A TOTAL OF         10 INNER ITERATIONS.
    ------------------------------------------------

 NO OUTPUT CONTROL FOR STRESS PERIOD   50   TIME STEP   29
 
 WELLS WITH REDUCED PUMPING FOR STRESS PERIOD    50 TIME STEP    29
   LAY   ROW   COL         APPL.Q          ACT.Q        GW-HEAD       CELL-BOT
     1     3    50  -0.870009E+00  -0.285834E+00   0.429622E+01   0.000000E+00
     1     5    55  -0.870009E+00  -0.227399E+00   0.371759E+01   0.000000E+00
 
 
 SOLVING FOR HEAD 
                                                   Max.-Head-Change                         Max.-Flux-Residual
  Residual-Control   Outer-Iter.   Inner-Iter.     Column Row Layer    Maximum-Head-Change  Column Row Layer    Maximum-Flux-Residual          L2-NORM 
          0                 1           3             1    1     1      -0.7537483364E-01       1    5    1        -0.9940767200E-03      0.1563793955E-01
          0                 2           2             1    1     1       0.7036834127E-02       1    5    1         0.9939944477E-04      0.1513829354E-02
          0                 3           2             1    1     1      -0.5889843534E-03       1    5    1        -0.8946690492E-05      0.1378105368E-03
          0                 4           1             1    1     1       0.4345680452E-04       1    3    1         0.7166204146E-06      0.1158237258E-04
          0                 5           1             3    1     1      -0.2571386750E-05      20    4    1         0.7122945433E-07      0.8265413688E-06
          0                 6           1             1    1     1       0.1286411687E-06      20    4    1        -0.5535664371E-08      0.5172689874E-07

    ------------------------------------------------
       NWT REQUIRED            6 OUTER ITERATIONS 
       AND A TOTAL OF         10 INNER ITERATIONS.
    ------------------------------------------------

 OUTPUT CONTROL FOR STRESS PERIOD   50   TIME STEP   30
    PRINT HEAD FOR ALL LAYERS
    SAVE HEAD FOR ALL LAYERS
    PRINT BUDGET
    SAVE BUDGET
 
 WELLS WITH REDUCED PUMPING FOR STRESS PERIOD    50 TIME STEP    30
   LAY   ROW   COL         APPL.Q          ACT.Q        GW-HEAD       CELL-BOT
     1     3    50  -0.869522E+00  -0.284800E+00   0.428829E+01   0.000000E+00
     1     5    55  -0.869522E+00  -0.226676E+00   0.371191E+01   0.000000E+00

            WELLS   PERIOD   50   STEP  30
 WELL      1   LAYER   1   ROW     3   COL    50   RATE   -0.284800    
 WELL      2   LAYER   1   ROW     5   COL    55   RATE   -0.226676    
 

  HEAD DEP BOUNDS   PERIOD   50   STEP    30
 BOUNDARY      1   LAYER   1   ROW     1   COL   100   RATE    1.583258E-02
 BOUNDARY      2   LAYER   1   ROW     2   COL   100   RATE    1.582296E-02
 BOUNDARY      3   LAYER   1   ROW     3   COL   100   RATE    1.563698E-02
 BOUNDARY      4   LAYER   1   ROW     4   COL   100   RATE    1.077465E-02
 BOUNDARY      5   LAYER   1   ROW     5   COL   100   RATE    1.563698E-02
 BOUNDARY      6   LAYER   1   ROW     6   COL   100   RATE    1.582296E-02
 BOUNDARY      7   LAYER   1   ROW     7   COL   100   RATE    1.583258E-02



 STREAM LISTING     PERIOD     50   STEP       30

 LAYER ROW COL. STREAM  RCH.   FLOW INTO    STREAM     FLOW OUT OF   OVRLND.    DIRECT     STREAM      STREAM      STREAM     STREAM  STREAMBED   FLOW TO   CHNG. UNSAT. 
                SEG.NO.  NO.   STRM. RCH.    LOSS       STRM. RCH.   RUNOFF     PRECIP       ET         HEAD        DEPTH      WIDTH  CONDCTNC.   WAT. TAB.

   1    4    1     1     1    9.0000E-01  5.5751E-04   8.9944E-01  0.000E+00  0.000E+00  0.000E+00  1.40554E+02  7.036E-01  2.654E+00  4.632E-04  3.018E-04  2.557E-04
   1    4    2     1     2    8.9944E-01  5.5733E-04   8.9889E-01  0.000E+00  0.000E+00  0.000E+00  1.40253E+02  7.034E-01  2.654E+00  4.631E-04  3.016E-04  2.557E-04
   1    4    3     1     3    8.9889E-01  5.5714E-04   8.9833E-01  0.000E+00  0.000E+00  0.000E+00  1.39953E+02  7.032E-01  2.654E+00  4.631E-04  3.015E-04  2.557E-04
   1    4    4     1     4    8.9833E-01  5.5696E-04   8.9777E-01  0.000E+00  0.000E+00  0.000E+00  1.39653E+02  7.029E-01  2.654E+00  4.630E-04  3.013E-04  2.556E-04
   1    4    5     1     5    8.9777E-01  5.5678E-04   8.9721E-01  0.000E+00  0.000E+00  0.000E+00  1.39353E+02  7.027E-01  2.653E+00  4.629E-04  3.012E-04  2.556E-04
   1    4    6     1     6    8.9721E-01  5.5660E-04   8.9666E-01  0.000E+00  0.000E+00  0.000E+00  1.39053E+02  7.025E-01  2.653E+00  4.629E-04  3.011E-04  2.555E-04
   1    4    7     1     7    8.9666E-01  5.5642E-04   8.9610E-01  0.000E+00  0.000E+00  0.000E+00  1.38752E+02  7.023E-01  2.653E+00  4.628E-04  3.010E-04  2.554E-04
   1    4    8     1     8    8.9610E-01  5.5624E-04   8.9555E-01  0.000E+00  0.000E+00  0.000E+00  1.38452E+02  7.021E-01  2.653E+00  4.627E-04  3.010E-04  2.553E-04
   1    4    9     1     9    8.9555E-01  5.5606E-04   8.9499E-01  0.000E+00  0.000E+00  0.000E+00  1.38152E+02  7.019E-01  2.652E+00  4.627E-04  3.009E-04  2.551E-04
   1    4   10     1    10    8.9499E-01  5.5588E-04   8.9443E-01  0.000E+00  0.000E+00  0.000E+00  1.37852E+02  7.017E-01  2.652E+00  4.626E-04  3.009E-04  2.550E-04
   1    4   11     1    11    8.9443E-01  5.5570E-04   8.9388E-01  0.000E+00  0.000E+00  0.000E+00  1.37551E+02  7.015E-01  2.652E+00  4.625E-04  3.009E-04  2.548E-04
   1    4   12     1    12    8.9388E-01  5.5552E-04   8.9332E-01  0.000E+00  0.000E+00  0.000E+00  1.37251E+02  7.013E-01  2.651E+00  4.625E-04  3.009E-04  2.547E-04
   1    4   13     1    13    8.9332E-01  5.5534E-04   8.9277E-01  0.000E+00  0.000E+00  0.000E+00  1.36951E+02  7.010E-01  2.651E+00  4.624E-04  3.009E-04  2.545E-04
   1    4   14     1    14    8.9277E-01  5.5516E-04   8.9221E-01  0.000E+00  0.000E+00  0.000E+00  1.36651E+02  7.008E-01  2.651E+00  4.623E-04  3.009E-04  2.543E-04
   1    4   15     1    15    8.9221E-01  5.5498E-04   8.9166E-01  0.000E+00  0.000E+00  0.000E+00  1.36351E+02  7.006E-01  2.651E+00  4.622E-04  3.009E-04  2.540E-04
   1    4   16     1    16    8.9166E-01  5.5480E-04   8.9110E-01  0.000E+00  0.000E+00  0.000E+00  1.36050E+02  7.004E-01  2.650E+00  4.622E-04  3.010E-04  2.538E-04
   1    4   17     1    17    8.9110E-01  5.5462E-04   8.9055E-01  0.000E+00  0.000E+00  0.000E+00  1.35750E+02  7.002E-01  2.650E+00  4.621E-04  3.011E-04  2.536E-04
   1    4   18     1    18    8.9055E-01  5.5444E-04   8.8999E-01  0.000E+00  0.000E+00  0.000E+00  1.35450E+02  7.000E-01  2.650E+00  4.620E-04  3.011E-04  2.533E-04
   1    4   19     1    19    8.8999E-01  5.5426E-04   8.8944E-01  0.000E+00  0.000E+00  0.000E+00  1.35150E+02  6.998E-01  2.650E+00  4.620E-04  3.012E-04  2.530E-04
   1    4   20     1    20    8.8944E-01  5.5408E-04   8.8888E-01  0.000E+00  0.000E+00  0.000E+00  1.34850E+02  6.996E-01  2.649E+00  4.619E-04  3.068E-04  2.473E-04
   1    4   21     1    21    8.8888E-01  5.5390E-04   8.8833E-01  0.000E+00  0.000E+00  0.000E+00  1.34549E+02  6.994E-01  2.649E+00  4.618E-04  3.070E-04  2.469E-04
   1    4   22     1    22    8.8833E-01  5.5372E-04   8.8778E-01  0.000E+00  0.000E+00  0.000E+00  1.34249E+02  6.991E-01  2.649E+00  4.618E-04  3.072E-04  2.465E-04
   1    4   23     1    23    8.8778E-01  5.5354E-04   8.8722E-01  0.000E+00  0.000E+00  0.000E+00  1.33949E+02  6.989E-01  2.649E+00  4.617E-04  3.074E-04  2.461E-04
   1    4   24     1    24    8.8722E-01  5.5336E-04   8.8667E-01  0.000E+00  0.000E+00  0.000E+00  1.33649E+02  6.987E-01  2.648E+00  4.616E-04  3.077E-04  2.457E-04
   1    4   25     1    25    8.8667E-01  5.5318E-04   8.8612E-01  0.000E+00  0.000E+00  0.000E+00  1.33349E+02  6.985E-01  2.648E+00  4.616E-04  3.124E-04  2.408E-04
   1    4   26     1    26    8.8612E-01  5.5300E-04   8.8556E-01  0.000E+00  0.000E+00  0.000E+00  1.33048E+02  6.983E-01  2.648E+00  4.615E-04  3.187E-04  2.343E-04
   1    4   27     1    27    8.8556E-01  5.5282E-04   8.8501E-01  0.000E+00  0.000E+00  0.000E+00  1.32748E+02  6.981E-01  2.648E+00  4.614E-04  3.190E-04  2.338E-04
   1    4   28     1    28    8.8501E-01  5.5264E-04   8.8446E-01  0.000E+00  0.000E+00  0.000E+00  1.32448E+02  6.979E-01  2.647E+00  4.613E-04  3.193E-04  2.333E-04
   1    4   29     1    29    8.8446E-01  5.5246E-04   8.8391E-01  0.000E+00  0.000E+00  0.000E+00  1.32148E+02  6.977E-01  2.647E+00  4.613E-04  3.195E-04  2.329E-04
   1    4   30     1    30    8.8391E-01  5.5228E-04   8.8335E-01  0.000E+00  0.000E+00  0.000E+00  1.31847E+02  6.975E-01  2.647E+00  4.612E-04  3.198E-04  2.325E-04
   1    4   31     1    31    8.8335E-01  5.5210E-04   8.8280E-01  0.000E+00  0.000E+00  0.000E+00  1.31547E+02  6.972E-01  2.647E+00  4.611E-04  3.201E-04  2.320E-04
   1    4   32     1    32    8.8280E-01  5.5192E-04   8.8225E-01  0.000E+00  0.000E+00  0.000E+00  1.31247E+02  6.970E-01  2.646E+00  4.611E-04  3.596E-04  1.923E-04
   1    4   33     1    33    8.8225E-01  5.5174E-04   8.8170E-01  0.000E+00  0.000E+00  0.000E+00  1.30947E+02  6.968E-01  2.646E+00  4.610E-04  4.347E-04  1.170E-04
   1    4   34     1    34    8.8170E-01  5.5156E-04   8.8115E-01  0.000E+00  0.000E+00  0.000E+00  1.30647E+02  6.966E-01  2.646E+00  4.609E-04  5.146E-04  3.695E-05
   1    4   35     1    35    8.8115E-01  5.5138E-04   8.8059E-01  0.000E+00  0.000E+00  0.000E+00  1.30346E+02  6.964E-01  2.646E+00  4.609E-04  5.475E-04  3.911E-06
   1    4   36     1    36    8.8059E-01  5.5121E-04   8.8004E-01  0.000E+00  0.000E+00  0.000E+00  1.30046E+02  6.962E-01  2.645E+00  4.608E-04  5.484E-04  2.793E-06
   1    4   37     1    37    8.8004E-01  5.5103E-04   8.7949E-01  0.000E+00  0.000E+00  0.000E+00  1.29746E+02  6.960E-01  2.645E+00  4.607E-04  5.493E-04  1.753E-06
   1    4   38     1    38    8.7949E-01  5.5085E-04   8.7894E-01  0.000E+00  0.000E+00  0.000E+00  1.29446E+02  6.958E-01  2.645E+00  4.607E-04  5.978E-04 -4.694E-05
   1    4   39     1    39    8.7894E-01  5.5067E-04   8.7839E-01  0.000E+00  0.000E+00  0.000E+00  1.29146E+02  6.956E-01  2.645E+00  4.606E-04  6.093E-04 -5.860E-05
   1    4   40     1    40    8.7839E-01  5.5049E-04   8.7784E-01  0.000E+00  0.000E+00  0.000E+00  1.28845E+02  6.954E-01  2.644E+00  4.605E-04  6.103E-04 -5.985E-05
   1    4   41     1    41    8.7784E-01  5.5031E-04   8.7729E-01  0.000E+00  0.000E+00  0.000E+00  1.28545E+02  6.951E-01  2.644E+00  4.605E-04  6.113E-04 -6.103E-05
   1    4   42     1    42    8.7729E-01  5.5013E-04   8.7674E-01  0.000E+00  0.000E+00  0.000E+00  1.28245E+02  6.949E-01  2.644E+00  4.604E-04  6.122E-04 -6.211E-05
   1    4   43     1    43    8.7674E-01  5.4995E-04   8.7619E-01  0.000E+00  0.000E+00  0.000E+00  1.27945E+02  6.947E-01  2.644E+00  4.603E-04  6.130E-04 -6.300E-05
   1    4   44     1    44    8.7619E-01  5.4977E-04   8.7564E-01  0.000E+00  0.000E+00  0.000E+00  1.27645E+02  6.945E-01  2.643E+00  4.602E-04  6.134E-04 -6.365E-05
   1    4   45     1    45    8.7564E-01  5.4959E-04   8.7509E-01  0.000E+00  0.000E+00  0.000E+00  1.27344E+02  6.943E-01  2.643E+00  4.602E-04  6.227E-04 -7.309E-05
   1    4   46     1    46    8.7509E-01  5.4941E-04   8.7454E-01  0.000E+00  0.000E+00  0.000E+00  1.27044E+02  6.941E-01  2.643E+00  4.601E-04  6.219E-04 -7.250E-05
   1    4   47     1    47    8.7454E-01  5.4924E-04   8.7399E-01  0.000E+00  0.000E+00  0.000E+00  1.26744E+02  6.939E-01  2.643E+00  4.600E-04  7.064E-04 -1.572E-04
   1    4   48     1    48    8.7399E-01  5.4906E-04   8.7344E-01  0.000E+00  0.000E+00  0.000E+00  1.26444E+02  6.937E-01  2.642E+00  4.600E-04  8.957E-04 -3.466E-04
   1    4   49     1    49    8.7344E-01  5.4888E-04   8.7289E-01  0.000E+00  0.000E+00  0.000E+00  1.26143E+02  6.935E-01  2.642E+00  4.599E-04  8.992E-04 -3.501E-04
   1    4   50     1    50    8.7289E-01  5.4870E-04   8.7234E-01  0.000E+00  0.000E+00  0.000E+00  1.25843E+02  6.932E-01  2.642E+00  4.598E-04  9.059E-04 -3.570E-04
   1    4   51     1    51    8.7234E-01  5.4852E-04   8.7180E-01  0.000E+00  0.000E+00  0.000E+00  1.25543E+02  6.930E-01  2.642E+00  4.598E-04  8.976E-04 -3.489E-04
   1    4   52     1    52    8.7180E-01  5.4834E-04   8.7125E-01  0.000E+00  0.000E+00  0.000E+00  1.25243E+02  6.928E-01  2.641E+00  4.597E-04  8.955E-04 -3.469E-04
   1    4   53     1    53    8.7125E-01  5.4816E-04   8.7070E-01  0.000E+00  0.000E+00  0.000E+00  1.24943E+02  6.926E-01  2.641E+00  4.596E-04  8.964E-04 -3.480E-04
   1    4   54     1    54    8.7070E-01  5.4798E-04   8.7015E-01  0.000E+00  0.000E+00  0.000E+00  1.24642E+02  6.924E-01  2.641E+00  4.596E-04  8.994E-04 -3.512E-04
   1    4   55     1    55    8.7015E-01  5.4781E-04   8.6960E-01  0.000E+00  0.000E+00  0.000E+00  1.24342E+02  6.922E-01  2.641E+00  4.595E-04  9.070E-04 -3.589E-04
   1    4   56     1    56    8.6960E-01  5.4763E-04   8.6906E-01  0.000E+00  0.000E+00  0.000E+00  1.24042E+02  6.920E-01  2.640E+00  4.594E-04  9.021E-04 -3.543E-04
   1    4   57     1    57    8.6906E-01  5.4745E-04   8.6851E-01  0.000E+00  0.000E+00  0.000E+00  1.23742E+02  6.918E-01  2.640E+00  4.594E-04  8.998E-04 -3.522E-04
   1    4   58     1    58    8.6851E-01  5.4727E-04   8.6796E-01  0.000E+00  0.000E+00  0.000E+00  1.23442E+02  6.916E-01  2.640E+00  4.593E-04  7.407E-04 -1.934E-04
   1    4   59     1    59    8.6796E-01  5.4709E-04   8.6741E-01  0.000E+00  0.000E+00  0.000E+00  1.23141E+02  6.914E-01  2.640E+00  4.592E-04  6.262E-04 -7.914E-05
   1    4   60     1    60    8.6741E-01  5.4691E-04   8.6687E-01  0.000E+00  0.000E+00  0.000E+00  1.22841E+02  6.911E-01  2.639E+00  4.592E-04  6.272E-04 -8.027E-05
   1    4   61     1    61    8.6687E-01  5.4674E-04   8.6632E-01  0.000E+00  0.000E+00  0.000E+00  1.22541E+02  6.909E-01  2.639E+00  4.591E-04  6.269E-04 -8.021E-05
   1    4   62     1    62    8.6632E-01  5.4656E-04   8.6577E-01  0.000E+00  0.000E+00  0.000E+00  1.22241E+02  6.907E-01  2.639E+00  4.590E-04  6.264E-04 -7.980E-05
   1    4   63     1    63    8.6577E-01  5.4638E-04   8.6523E-01  0.000E+00  0.000E+00  0.000E+00  1.21941E+02  6.905E-01  2.639E+00  4.589E-04  6.172E-04 -7.078E-05
   1    4   64     1    64    8.6523E-01  5.4620E-04   8.6468E-01  0.000E+00  0.000E+00  0.000E+00  1.21640E+02  6.903E-01  2.638E+00  4.589E-04  6.163E-04 -7.008E-05
   1    4   65     1    65    8.6468E-01  5.4602E-04   8.6414E-01  0.000E+00  0.000E+00  0.000E+00  1.21340E+02  6.901E-01  2.638E+00  4.588E-04  6.153E-04 -6.928E-05
   1    4   66     1    66    8.6414E-01  5.4585E-04   8.6359E-01  0.000E+00  0.000E+00  0.000E+00  1.21040E+02  6.899E-01  2.638E+00  4.587E-04  6.143E-04 -6.844E-05
   1    4   67     1    67    8.6359E-01  5.4567E-04   8.6304E-01  0.000E+00  0.000E+00  0.000E+00  1.20740E+02  6.897E-01  2.638E+00  4.587E-04  5.881E-04 -4.246E-05
   1    4   68     1    68    8.6304E-01  5.4549E-04   8.6250E-01  0.000E+00  0.000E+00  0.000E+00  1.20439E+02  6.895E-01  2.637E+00  4.586E-04  5.648E-04 -1.935E-05
   1    4   69     1    69    8.6250E-01  5.4531E-04   8.6195E-01  0.000E+00  0.000E+00  0.000E+00  1.20139E+02  6.892E-01  2.637E+00  4.585E-04  5.534E-04 -8.084E-06
   1    4   70     1    70    8.6195E-01  5.4513E-04   8.6141E-01  0.000E+00  0.000E+00  0.000E+00  1.19839E+02  6.890E-01  2.637E+00  4.585E-04  4.376E-04  1.076E-04
   1    4   71     1    71    8.6141E-01  5.4496E-04   8.6086E-01  0.000E+00  0.000E+00  0.000E+00  1.19539E+02  6.888E-01  2.637E+00  4.584E-04  3.298E-04  2.151E-04
   1    4   72     1    72    8.6086E-01  5.4478E-04   8.6032E-01  0.000E+00  0.000E+00  0.000E+00  1.19239E+02  6.886E-01  2.636E+00  4.583E-04  3.298E-04  2.150E-04
   1    4   73     1    73    8.6032E-01  5.4460E-04   8.5977E-01  0.000E+00  0.000E+00  0.000E+00  1.18938E+02  6.884E-01  2.636E+00  4.583E-04  3.299E-04  2.147E-04
   1    4   74     1    74    8.5977E-01  5.4442E-04   8.5923E-01  0.000E+00  0.000E+00  0.000E+00  1.18638E+02  6.882E-01  2.636E+00  4.582E-04  3.298E-04  2.146E-04
   1    4   75     1    75    8.5923E-01  5.4424E-04   8.5869E-01  0.000E+00  0.000E+00  0.000E+00  1.18338E+02  6.880E-01  2.636E+00  4.581E-04  3.297E-04  2.145E-04
   1    4   76     1    76    8.5869E-01  5.4407E-04   8.5814E-01  0.000E+00  0.000E+00  0.000E+00  1.18038E+02  6.878E-01  2.635E+00  4.581E-04  3.297E-04  2.144E-04
   1    4   77     1    77    8.5814E-01  5.4389E-04   8.5760E-01  0.000E+00  0.000E+00  0.000E+00  1.17738E+02  6.876E-01  2.635E+00  4.580E-04  3.296E-04  2.142E-04
   1    4   78     1    78    8.5760E-01  5.4371E-04   8.5705E-01  0.000E+00  0.000E+00  0.000E+00  1.17437E+02  6.874E-01  2.635E+00  4.579E-04  3.297E-04  2.141E-04
   1    4   79     1    79    8.5705E-01  5.4353E-04   8.5651E-01  0.000E+00  0.000E+00  0.000E+00  1.17137E+02  6.871E-01  2.635E+00  4.578E-04  3.297E-04  2.138E-04
   1    4   80     1    80    8.5651E-01  5.4336E-04   8.5597E-01  0.000E+00  0.000E+00  0.000E+00  1.16837E+02  6.869E-01  2.634E+00  4.578E-04  3.298E-04  2.135E-04
   1    4   81     1    81    8.5597E-01  5.4318E-04   8.5542E-01  0.000E+00  0.000E+00  0.000E+00  1.16537E+02  6.867E-01  2.634E+00  4.577E-04  3.244E-04  2.188E-04
   1    4   82     1    82    8.5542E-01  5.4300E-04   8.5488E-01  0.000E+00  0.000E+00  0.000E+00  1.16237E+02  6.865E-01  2.634E+00  4.576E-04  3.213E-04  2.217E-04
   1    4   83     1    83    8.5488E-01  5.4282E-04   8.5434E-01  0.000E+00  0.000E+00  0.000E+00  1.15936E+02  6.863E-01  2.634E+00  4.576E-04  3.205E-04  2.223E-04
   1    4   84     1    84    8.5434E-01  5.4265E-04   8.5379E-01  0.000E+00  0.000E+00  0.000E+00  1.15636E+02  6.861E-01  2.633E+00  4.575E-04  3.137E-04  2.290E-04
   1    4   85     1    85    8.5379E-01  5.4247E-04   8.5325E-01  0.000E+00  0.000E+00  0.000E+00  1.15336E+02  6.859E-01  2.633E+00  4.574E-04  3.140E-04  2.285E-04
   1    4   86     1    86    8.5325E-01  5.4229E-04   8.5271E-01  0.000E+00  0.000E+00  0.000E+00  1.15036E+02  6.857E-01  2.633E+00  4.574E-04  3.143E-04  2.280E-04
   1    4   87     1    87    8.5271E-01  5.4212E-04   8.5217E-01  0.000E+00  0.000E+00  0.000E+00  1.14735E+02  6.855E-01  2.633E+00  4.573E-04  3.146E-04  2.275E-04
   1    4   88     1    88    8.5217E-01  5.4194E-04   8.5163E-01  0.000E+00  0.000E+00  0.000E+00  1.14435E+02  6.853E-01  2.632E+00  4.572E-04  3.150E-04  2.270E-04
   1    4   89     1    89    8.5163E-01  5.4176E-04   8.5108E-01  0.000E+00  0.000E+00  0.000E+00  1.14135E+02  6.850E-01  2.632E+00  4.572E-04  3.153E-04  2.264E-04
   1    4   90     1    90    8.5108E-01  5.4158E-04   8.5054E-01  0.000E+00  0.000E+00  0.000E+00  1.13835E+02  6.848E-01  2.632E+00  4.571E-04  2.881E-04  2.535E-04
   1    4   91     1    91    8.5054E-01  5.4141E-04   8.5000E-01  0.000E+00  0.000E+00  0.000E+00  1.13535E+02  6.846E-01  2.632E+00  4.570E-04  2.139E-04  3.275E-04
   1    4   92     1    92    8.5000E-01  5.4123E-04   8.4946E-01  0.000E+00  0.000E+00  0.000E+00  1.13234E+02  6.844E-01  2.631E+00  4.570E-04  1.565E-04  3.847E-04
   1    4   93     1    93    8.4946E-01  5.4105E-04   8.4892E-01  0.000E+00  0.000E+00  0.000E+00  1.12934E+02  6.842E-01  2.631E+00  4.569E-04  1.574E-04  3.837E-04
   1    4   94     1    94    8.4892E-01  5.4088E-04   8.4838E-01  0.000E+00  0.000E+00  0.000E+00  1.12634E+02  6.840E-01  2.631E+00  4.568E-04  1.583E-04  3.825E-04
   1    4   95     1    95    8.4838E-01  5.4070E-04   8.4784E-01  0.000E+00  0.000E+00  0.000E+00  1.12334E+02  6.838E-01  2.631E+00  4.568E-04  1.593E-04  3.814E-04
   1    4   96     1    96    8.4784E-01  5.4052E-04   8.4730E-01  0.000E+00  0.000E+00  0.000E+00  1.12034E+02  6.836E-01  2.630E+00  4.567E-04  1.603E-04  3.803E-04
   1    4   97     1    97    8.4730E-01  5.4035E-04   8.4676E-01  0.000E+00  0.000E+00  0.000E+00  1.11733E+02  6.834E-01  2.630E+00  4.566E-04  1.613E-04  3.790E-04
   1    4   98     1    98    8.4676E-01  5.4017E-04   8.4622E-01  0.000E+00  0.000E+00  0.000E+00  1.11433E+02  6.832E-01  2.630E+00  4.565E-04  1.624E-04  3.777E-04
   1    4   99     1    99    8.4622E-01  5.3999E-04   8.4568E-01  0.000E+00  0.000E+00  0.000E+00  1.11133E+02  6.830E-01  2.630E+00  4.565E-04  1.636E-04  3.764E-04
   1    4  100     1   100    8.4568E-01  5.3982E-04   8.4514E-01  0.000E+00  0.000E+00  0.000E+00  1.10833E+02  6.827E-01  2.629E+00  4.564E-04  1.647E-04  3.751E-04



1
  VOLUMETRIC BUDGET FOR UNSATURATED ZONE BENEATH STREAMS AT END OF TIME STEP    30 STRESS PERIOD  50
  ------------------------------------------------------------------------------------------------

    CUMULATIVE VOLUMES             L**3    RATES FOR THIS TIME STEP         L**3/T
    ------------------                     ------------------------


          STREAM LOSS =     35725148.0000            STREAM LOSS =        5.4863E-02
    CHANGE IN STORAGE =      1091747.0000      CHANGE IN STORAGE =        1.1257E-02
       RECHARGE TO GW =     34642948.0000         RECHARGE TO GW =        4.3608E-02

             TOTAL IN =     35725148.0000               TOTAL IN =        5.4863E-02

            TOTAL OUT =     35734696.0000              TOTAL OUT =        5.4865E-02

             IN - OUT =        -9548.0000               IN - OUT =       -1.7993E-06

  PERCENT DISCREPANCY =           -0.01      PERCENT DISCREPANCY =            -0.00



1
              HEAD IN LAYER 1 AT END OF TIME STEP 30 IN STRESS PERIOD 50
  ---------------------------------------------------------------------------

          1      2      3      4      5      6      7      8      9     10
         11     12     13     14     15     16     17     18     19     20
         21     22     23     24     25     26     27     28     29     30
         31     32     33     34     35     36     37     38     39     40
         41     42     43     44     45     46     47     48     49     50
         51     52     53     54     55     56     57     58     59     60
         61     62     63     64     65     66     67     68     69     70
         71     72     73     74     75     76     77     78     79     80
         81     82     83     84     85     86     87     88     89     90
         91     92     93     94     95     96     97     98     99    100
 .........................................................................
   1  80.0 80.0 79.9 79.8 79.7 79.5 79.3 79.0 78.7 78.4
      78.0 77.6 77.2 76.7 76.2 75.6 75.0 74.4 73.7 73.0
      72.2 71.4 70.6 69.6 68.7 67.7 66.6 65.5 64.3 63.1
      61.8 60.5 59.0 57.5 56.0 54.3 52.6 50.7 48.8 46.7
      44.5 42.1 39.6 36.9 33.9 30.6 26.8 22.4 17.1 11.1
      10.4 10.7 10.9 11.3 12.8 16.3 20.0 23.5 26.6 29.4
      32.0 34.3 36.5 38.6 40.5 42.3 44.0 45.6 47.2 48.7
      50.1 51.4 52.7 53.9 55.1 56.3 57.4 58.4 59.4 60.4
      61.4 62.3 63.2 64.0 64.9 65.7 66.5 67.2 67.9 68.7
      69.4 70.0 70.7 71.3 72.0 72.6 73.2 73.8 74.4 75.0
   2  80.0 80.0 79.9 79.8 79.7 79.5 79.3 79.0 78.7 78.4
      78.0 77.6 77.2 76.7 76.2 75.6 75.0 74.4 73.7 73.0
      72.2 71.4 70.6 69.6 68.7 67.7 66.6 65.5 64.3 63.1
      61.8 60.5 59.0 57.5 56.0 54.3 52.6 50.7 48.8 46.7
      44.5 42.1 39.6 36.9 33.9 30.6 26.8 22.4 16.9 9.3
      10.2 10.7 10.8 11.0 12.2 16.0 19.9 23.5 26.6 29.4
      32.0 34.3 36.5 38.6 40.5 42.3 44.0 45.6 47.2 48.7
      50.1 51.4 52.7 53.9 55.1 56.3 57.4 58.4 59.4 60.4
      61.4 62.3 63.2 64.0 64.9 65.7 66.5 67.2 67.9 68.7
      69.4 70.0 70.7 71.3 72.0 72.6 73.2 73.8 74.4 75.0
   3  80.0 80.0 79.9 79.8 79.7 79.5 79.3 79.0 78.7 78.4
      78.0 77.6 77.2 76.7 76.2 75.6 75.0 74.4 73.7 73.0
      72.2 71.4 70.6 69.6 68.7 67.7 66.6 65.5 64.3 63.1
      61.8 60.5 59.0 57.5 56.0 54.3 52.6 50.7 48.8 46.7
      44.5 42.1 39.6 36.9 33.9 30.6 26.9 22.5 16.7 4.3
      10.0 10.7 10.7 10.5 10.8 15.6 19.8 23.4 26.6 29.4
      32.0 34.3 36.5 38.6 40.5 42.3 44.0 45.6 47.2 48.7
      50.1 51.4 52.7 53.9 55.1 56.3 57.4 58.4 59.4 60.4
      61.4 62.3 63.2 64.0 64.9 65.7 66.5 67.2 67.9 68.7
      69.4 70.0 70.7 71.3 72.0 72.6 73.2 73.8 74.4 75.0
   4  80.0 80.0 79.9 79.8 79.7 79.5 79.3 79.0 78.7 78.4
      78.0 77.6 77.2 76.7 76.2 75.6 75.0 74.4 73.7 73.0
      72.2 71.4 70.6 69.6 68.7 67.7 66.6 65.5 64.3 63.1
      61.8 60.5 59.0 57.5 56.0 54.3 52.6 50.7 48.8 46.7
      44.5 42.1 39.6 36.9 33.9 30.6 26.9 22.6 17.2 9.5
      10.7 10.8 10.6 9.9 8.4 15.0 19.7 23.4 26.6 29.4
      32.0 34.3 36.5 38.6 40.5 42.3 44.0 45.7 47.2 48.7
      50.1 51.4 52.7 53.9 55.1 56.3 57.4 58.4 59.4 60.4
      61.4 62.3 63.2 64.0 64.9 65.7 66.5 67.2 68.0 68.7
      69.4 70.0 70.7 71.4 72.0 72.6 73.2 73.8 74.4 75.0
   5  80.0 80.0 79.9 79.8 79.7 79.5 79.3 79.0 78.7 78.4
      78.0 77.6 77.2 76.7 76.2 75.6 75.0 74.4 73.7 73.0
      72.2 71.4 70.6 69.6 68.7 67.7 66.6 65.5 64.3 63.1
      61.8 60.5 59.0 57.5 56.0 54.3 52.6 50.7 48.8 46.7
      44.5 42.1 39.6 36.9 33.9 30.6 26.9 22.7 17.8 12.2
      11.3 11.0 10.5 9.4 3.7 14.5 19.6 23.3 26.6 29.4
      32.0 34.3 36.5 38.6 40.5 42.3 44.0 45.6 47.2 48.7
      50.1 51.4 52.7 53.9 55.1 56.3 57.4 58.4 59.4 60.4
      61.4 62.3 63.2 64.0 64.9 65.7 66.5 67.2 67.9 68.7
      69.4 70.0 70.7 71.3 72.0 72.6 73.2 73.8 74.4 75.0
   6  80.0 80.0 79.9 79.8 79.7 79.5 79.3 79.0 78.7 78.4
      78.0 77.6 77.2 76.7 76.2 75.6 75.0 74.4 73.7 73.0
      72.2 71.4 70.6 69.6 68.7 67.7 66.6 65.5 64.3 63.1
      61.8 60.5 59.0 57.5 56.0 54.3 52.6 50.7 48.8 46.7
      44.5 42.1 39.6 36.9 33.9 30.6 27.0 22.9 18.3 13.8
      11.9 11.1 10.5 9.5 8.2 14.7 19.5 23.3 26.5 29.4
      32.0 34.3 36.5 38.6 40.5 42.3 44.0 45.6 47.2 48.7
      50.1 51.4 52.7 53.9 55.1 56.3 57.4 58.4 59.4 60.4
      61.4 62.3 63.2 64.0 64.9 65.7 66.5 67.2 67.9 68.7
      69.4 70.0 70.7 71.3 72.0 72.6 73.2 73.8 74.4 75.0
   7  80.0 80.0 79.9 79.8 79.7 79.5 79.3 79.0 78.7 78.4
      78.0 77.6 77.2 76.7 76.2 75.6 75.0 74.4 73.7 73.0
      72.2 71.4 70.6 69.6 68.7 67.7 66.6 65.5 64.3 63.1
      61.8 60.5 59.0 57.5 56.0 54.3 52.6 50.7 48.8 46.7
      44.5 42.1 39.6 36.9 33.9 30.6 27.0 23.0 18.6 14.4
      12.3 11.2 10.5 9.7 9.8 14.9 19.5 23.3 26.5 29.4
      32.0 34.3 36.5 38.6 40.5 42.3 44.0 45.6 47.2 48.7
      50.1 51.4 52.7 53.9 55.1 56.3 57.4 58.4 59.4 60.4
      61.4 62.3 63.2 64.0 64.9 65.7 66.5 67.2 67.9 68.7
      69.4 70.0 70.7 71.3 72.0 72.6 73.2 73.8 74.4 75.0

 HEAD WILL BE SAVED ON UNIT   51 AT END OF TIME STEP   30, STRESS PERIOD   50
1
  VOLUMETRIC BUDGET FOR ENTIRE MODEL AT END OF TIME STEP   30, STRESS PERIOD  50
  ------------------------------------------------------------------------------

     CUMULATIVE VOLUMES      L**3       RATES FOR THIS TIME STEP      L**3/T
     ------------------                 ------------------------

           IN:                                      IN:
           ---                                      ---
             STORAGE     =   118306248.0000               STORAGE     =           0.3625
       CONSTANT HEAD     =           0.0000         CONSTANT HEAD     =           0.0000
               WELLS     =           0.0000                 WELLS     =           0.0000
     HEAD DEP BOUNDS     =     4145528.2500       HEAD DEP BOUNDS     =           0.1054
      STREAM LEAKAGE     =    34642556.0000        STREAM LEAKAGE     =       4.3608E-02

                TOTAL IN =   157094336.0000                  TOTAL IN =           0.5115

          OUT:                                     OUT:
          ----                                     ----
             STORAGE     =     3748865.7500               STORAGE     =           0.0000
       CONSTANT HEAD     =           0.0000         CONSTANT HEAD     =           0.0000
               WELLS     =   136959616.0000                 WELLS     =           0.5115
     HEAD DEP BOUNDS     =    16385952.0000       HEAD DEP BOUNDS     =           0.0000
      STREAM LEAKAGE     =           0.0000        STREAM LEAKAGE     =           0.0000

               TOTAL OUT =   157094432.0000                 TOTAL OUT =           0.5115

                IN - OUT =         -96.0000                  IN - OUT =           0.0000

     PERCENT DISCREPANCY =          -0.00         PERCENT DISCREPANCY =           0.00






         TIME SUMMARY AT END OF TIME STEP   30 IN STRESS PERIOD   50
                    SECONDS     MINUTES      HOURS       DAYS        YEARS
                    -----------------------------------------------------------
   TIME STEP LENGTH 2.49961E+05  4166.0      69.434      2.8931     7.92080E-03
 STRESS PERIOD TIME 2.59200E+06  43200.      720.00      30.000     8.21355E-02
         TOTAL TIME 1.29600E+08 2.16000E+06  36000.      1500.0      4.1068    
1


 Run end date and time (yyyy/mm/dd hh:mm:ss): 2024/08/13  7:52:40
 Elapsed run time: 18.256 Seconds

