                                  MODFLOW-NWT-SWR1 
      U.S. GEOLOGICAL SURVEY MODULAR FINITE-DIFFERENCE GROUNDWATER-FLOW MODEL
                            VERSION 1.3.0 06/01/2022
                    BASED ON MODFLOW-2005 VERSION 1.12.00 02/03/2017

 LIST FILE: .\output\SFR_LAK_floodplain.lst
                         UNIT    9

 OPENING .\input\SFR_LAK_floodplain.ba6
 FILE TYPE:BAS6   UNIT   75   STATUS:OLD    
 FORMAT:FORMATTED              ACCESS:SEQUENTIAL          

 OPENING .\input\SFR_LAK_floodplain.upw
 FILE TYPE:UPW   UNIT    7   STATUS:OLD    
 FORMAT:FORMATTED              ACCESS:SEQUENTIAL          

 OPENING .\input\SFR_LAK_floodplain.dis
 FILE TYPE:DIS   UNIT    8   STATUS:OLD    
 FORMAT:FORMATTED              ACCESS:SEQUENTIAL          

 OPENING .\input\SFR_LAK_floodplain.nwt
 FILE TYPE:NWT   UNIT   13   STATUS:OLD    
 FORMAT:FORMATTED              ACCESS:SEQUENTIAL          

 OPENING .\input\SFR_LAK_floodplain.oc
 FILE TYPE:OC   UNIT   14   STATUS:OLD    
 FORMAT:FORMATTED              ACCESS:SEQUENTIAL          

 OPENING .\input\SFR_LAK_floodplain.sfr
 FILE TYPE:SFR   UNIT   15   STATUS:OLD    
 FORMAT:FORMATTED              ACCESS:SEQUENTIAL          

 OPENING .\input\SFR_LAK_floodplain.wel
 FILE TYPE:WEL   UNIT   16   STATUS:OLD    
 FORMAT:FORMATTED              ACCESS:SEQUENTIAL          

 OPENING .\input\SFR_LAK_floodplain.ghb
 FILE TYPE:GHB   UNIT   17   STATUS:OLD    
 FORMAT:FORMATTED              ACCESS:SEQUENTIAL          

 OPENING .\input\SFR_LAK_floodplain.uzf
 FILE TYPE:UZF   UNIT   19   STATUS:OLD    
 FORMAT:FORMATTED              ACCESS:SEQUENTIAL          

 OPENING .\input\SFR_LAK_floodplain.gag
 FILE TYPE:GAGE   UNIT   32   STATUS:OLD    
 FORMAT:FORMATTED              ACCESS:SEQUENTIAL          

 OPENING .\input\SFR_LAK_floodplain.lak
 FILE TYPE:LAK   UNIT   33   STATUS:OLD    
 FORMAT:FORMATTED              ACCESS:SEQUENTIAL          

 OPENING .\input\SFR_LAK_floodplain.tab
 FILE TYPE:DATA   UNIT   55   STATUS:UNKNOWN
 FORMAT:FORMATTED              ACCESS:SEQUENTIAL          

 OPENING .\input\SFR_LAK_floodplain_bath.txt
 FILE TYPE:DATA   UNIT   57   STATUS:UNKNOWN
 FORMAT:FORMATTED              ACCESS:SEQUENTIAL          

 OPENING .\output\SFR_LAK_floodplainhd.out
 FILE TYPE:DATA   UNIT   58   STATUS:UNKNOWN
 FORMAT:FORMATTED              ACCESS:SEQUENTIAL          

 OPENING .\output\SFR_LAK_floodplain.uzfot
 FILE TYPE:DATA(BINARY)   UNIT   61   STATUS:UNKNOWN
 FORMAT:UNFORMATTED            ACCESS:STREAM              

 OPENING .\output\SFR_LAK_floodplain.uzf1
 FILE TYPE:DATA   UNIT   65   STATUS:UNKNOWN
 FORMAT:FORMATTED              ACCESS:SEQUENTIAL          

 OPENING .\output\SFR_LAK_floodplain.uzf2
 FILE TYPE:DATA   UNIT   66   STATUS:UNKNOWN
 FORMAT:FORMATTED              ACCESS:SEQUENTIAL          

 OPENING .\output\SFR_LAK_floodplain.uzf3
 FILE TYPE:DATA   UNIT   67   STATUS:UNKNOWN
 FORMAT:FORMATTED              ACCESS:SEQUENTIAL          

 OPENING .\output\SFR_LAK_floodplain.uzf4
 FILE TYPE:DATA   UNIT   68   STATUS:UNKNOWN
 FORMAT:FORMATTED              ACCESS:SEQUENTIAL          

 OPENING .\output\SFR_LAK_floodplain.flw
 FILE TYPE:DATA   UNIT   81   STATUS:UNKNOWN
 FORMAT:FORMATTED              ACCESS:SEQUENTIAL          

 OPENING .\output\SFR_LAK_floodplain.sg1
 FILE TYPE:DATA   UNIT   83   STATUS:UNKNOWN
 FORMAT:FORMATTED              ACCESS:SEQUENTIAL          

 OPENING .\output\SFR_LAK_floodplain.sg2
 FILE TYPE:DATA   UNIT   84   STATUS:UNKNOWN
 FORMAT:FORMATTED              ACCESS:SEQUENTIAL          

 OPENING .\output\SFR_LAK_floodplain.lg1
 FILE TYPE:DATA   UNIT  801   STATUS:UNKNOWN
 FORMAT:FORMATTED              ACCESS:SEQUENTIAL          

 BAS -- BASIC PACKAGE, VERSION 1.1.4, 4/01/2018 INPUT READ FROM UNIT   75
 
 MODFLOW was compiled using mixed precision
 Precision of REAL variables:           6
 Precision of DOUBLE PRECISION variables:          15

 DISCRETIZATION INPUT DATA READ FROM UNIT    8
 #Test problem 2-- Discretization input
 #Example problem using the UZF1 Package
    2 LAYERS        15 ROWS        10 COLUMNS
   12 STRESS PERIOD(S) IN SIMULATION
 MODEL TIME UNIT IS SECONDS
 MODEL LENGTH UNIT IS FEET
  Confining bed flag for each layer:
   0   0

                     DELR =   5000.00    

                     DELC =   5000.00    



           TOP ELEVATION OF LAYER 1
 READING ON UNIT    8 WITH FORMAT: (10F7.0)            

            1           2           3           4           5           6           7           8           9          10
 ........................................................................................................................
   1    1105.       1105.       0.000       0.000       0.000       0.000       0.000       0.000       0.000       0.000    
   2    1105.       1095.       1105.       0.000       0.000       1100.       1100.       1110.       0.000       0.000    
   3    0.000       1100.       1085.       1080.       1078.       1076.       1073.       1090.       0.000       0.000    
   4    1110.       1100.       1090.       1085.       1074.       1080.       1080.       1070.       1100.       0.000    
   5    1110.       1100.       1085.       1080.       1076.       1074.       1077.       1066.       1075.       1080.    
   6    1105.       1095.       1080.       1077.       1073.       1069.       1070.       1063.       1085.       1095.    
   7    1105.       1090.       1075.       1072.       1070.       1065.       1065.       1069.       1090.       0.000    
   8    0.000       1080.       1070.       1068.       1063.       1060.       1063.       1067.       1090.       0.000    
   9    0.000       1075.       1065.       1062.       1058.       1052.       1055.       1065.       1090.       0.000    
  10    0.000       1070.       1060.       1055.       1046.       1046.       1044.       1060.       1088.       1100.    
  11    0.000       1055.       1050.       1045.       1041.       1042.       1040.       1050.       1075.       0.000    
  12    1027.       1028.       1028.       1032.       1032.       1033.       1032.       1040.       1060.       0.000    
  13    997.0       1004.       1008.       1014.       1020.       1027.       1032.       1038.       1050.       0.000    
  14    0.000       1030.       1040.       1045.       1050.       1050.       1050.       1050.       1044.       0.000    
  15    0.000       0.000       1080.       1080.       1080.       1080.       0.000       0.000       0.000       0.000    



             MODEL LAYER BOTTOM EL. FOR LAYER   1
 READING ON UNIT    8 WITH FORMAT: (10F7.0)            

            1           2           3           4           5           6           7           8           9          10
 ........................................................................................................................
   1    1105.       1105.       0.000       0.000       0.000       0.000       0.000       0.000       0.000       0.000    
   2    1105.       1095.       1105.       0.000       0.000       1100.       1100.       1110.       0.000       0.000    
   3    0.000       1100.       1085.       1080.       1078.       1076.       1073.       1090.       0.000       0.000    
   4    1110.       1100.       1090.       1085.       1074.       1080.       1080.       1070.       1100.       0.000    
   5    1110.       1100.       1085.       1080.       1076.       1074.       1077.       1066.       1075.       1080.    
   6    1105.       1095.       1080.       1077.       1073.       1069.       1070.       1063.       1085.       1095.    
   7    1105.       1090.       1075.       1072.       1070.       1065.       1065.       1069.       1090.       0.000    
   8    0.000       1080.       1070.       1068.       1063.       1060.       1063.       1067.       1090.       0.000    
   9    0.000       1075.       1065.       1062.       1058.       1052.       1055.       1065.       1090.       0.000    
  10    0.000       1070.       1060.       1055.       1046.       1046.       1044.       1060.       1088.       1100.    
  11    0.000       1055.       1050.       1045.       1041.       1042.       1040.       1050.       1075.       0.000    
  12    1027.       1028.       1028.       1032.       1032.       1033.       1032.       1040.       1060.       0.000    
  13    997.0       1004.       1008.       1014.       1020.       1027.       1032.       1038.       1050.       0.000    
  14    0.000       1030.       1040.       1045.       1050.       1050.       1050.       1050.       1044.       0.000    
  15    0.000       0.000       1080.       1080.       1080.       1080.       0.000       0.000       0.000       0.000    



             MODEL LAYER BOTTOM EL. FOR LAYER   2
 READING ON UNIT    8 WITH FORMAT: (10F7.0)            

            1           2           3           4           5           6           7           8           9          10
 ........................................................................................................................
   1    1000.       1000.       0.000       0.000       0.000       0.000       0.000       0.000       0.000       0.000    
   2    1000.       900.0       900.0       0.000       0.000       950.0       950.0       950.0       0.000       0.000    
   3    0.000       850.0       670.0       680.0       680.0       770.0       770.0       890.0       0.000       0.000    
   4    925.0       850.0       650.0       650.0       650.0       680.0       740.0       850.0       950.0       0.000    
   5    925.0       800.0       650.0       600.0       600.0       600.0       650.0       720.0       850.0       950.0    
   6    925.0       800.0       650.0       600.0       550.0       600.0       650.0       720.0       850.0       970.0    
   7    925.0       800.0       650.0       600.0       550.0       600.0       650.0       720.0       950.0       0.000    
   8    0.000       850.0       700.0       650.0       570.0       600.0       700.0       850.0       950.0       0.000    
   9    0.000       850.0       700.0       650.0       540.0       580.0       700.0       850.0       950.0       0.000    
  10    0.000       850.0       700.0       630.0       530.0       580.0       650.0       800.0       900.0       950.0    
  11    0.000       850.0       700.0       620.0       580.0       620.0       700.0       800.0       900.0       0.000    
  12    900.0       830.0       710.0       640.0       600.0       650.0       700.0       800.0       900.0       0.000    
  13    900.0       810.0       750.0       700.0       650.0       700.0       750.0       800.0       900.0       0.000    
  14    0.000       950.0       850.0       850.0       850.0       850.0       850.0       850.0       850.0       0.000    
  15    0.000       0.000       950.0       950.0       950.0       950.0       0.000       0.000       0.000       0.000    


 STRESS PERIOD     LENGTH       TIME STEPS     MULTIPLIER FOR DELT    SS FLAG
 ----------------------------------------------------------------------------
        1         2628000.          1                    1.000         SS
        2         2628000.         15                    1.000         TR
        3         2628000.         15                    1.000         TR
        4         2628000.         15                    1.000         TR
        5         2628000.         15                    1.000         TR
        6         2628000.         15                    1.000         TR
        7         2628000.         15                    1.000         TR
        8         2628000.         15                    1.000         TR
        9         2628000.         15                    1.000         TR
       10         2628000.         15                    1.000         TR
       11         2628000.         15                    1.000         TR
       12        2.1024000E+07    120                    1.000         TR

 COMBINED STEADY-STATE AND TRANSIENT SIMULATION



 
 #Test Simulation 2-- Example problem using the UZF1 Package                     
 #Modified from example Problem 1 of SFR1 documentation report                   
 THE FREE FORMAT OPTION HAS BEEN SELECTED



                     BOUNDARY ARRAY FOR LAYER   1
 READING ON UNIT   75 WITH FORMAT: (20I4)              

                1           2           3           4           5           6           7           8           9          10
 ............................................................................................................................
   1            0           0           0           0           0           0           0           0           0           0
   2            0           0           0           0           0           0           0           0           0           0
   3            0           0           0           0           0           0           0           0           0           0
   4            0           0           0           0           0           0           0           0           0           0
   5            0           0           0           0           0           0           0           0           0           0
   6            0           0           0           0           0           0           0           0           0           0
   7            0           0           0           0           0           0           0           0           0           0
   8            0           0           0           0           0           0           0           0           0           0
   9            0           0           0           0           0           0           0           0           0           0
  10            0           0           0           0           0           0           0           0           0           0
  11            0           0           0           0           0           0           0           0           0           0
  12            0           0           0           0           0           0           0           0           0           0
  13            0           0           0           0           0           0           0           0           0           0
  14            0           0           0           0           0           0           0           0           0           0
  15            0           0           0           0           0           0           0           0           0           0



                     BOUNDARY ARRAY FOR LAYER   2
 READING ON UNIT   75 WITH FORMAT: (20I4)              

                1           2           3           4           5           6           7           8           9          10
 ............................................................................................................................
   1            1           1           0           0           0           0           0           0           0           0
   2            1           1           1           0           0           1           1           1           0           0
   3            0           1           1           1           1           1           1           1           0           0
   4            1           1           1           1           1           1           1           1           1           0
   5            1           1           1           1           1           1           1           1           1           1
   6            1           1           1           1           1           1           1           1           1           1
   7            1           1           1           1           1           1           1           1           1           0
   8            0           1           1           1           1           1           1           1           1           0
   9            0           1           1           1           1           1           1           1           1           0
  10            0           1           1           1           1           1           1           1           1           1
  11            0           1           1           1           1           1           1           1           1           0
  12            1           1           1           1           1           1           1           1           1           0
  13            1           1           1           1           1           1           1           1           1           0
  14            0           1           1           1           1           1           1           1           1           0
  15            0           0           1           1           1           1           0           0           0           0

 AQUIFER HEAD WILL BE SET TO   6999.0     AT ALL NO-FLOW NODES (IBOUND=0).



                       INITIAL HEAD FOR LAYER   1
 READING ON UNIT   75 WITH FORMAT: (10F10.3)           

            1           2           3           4           5           6           7           8           9          10
 ........................................................................................................................
   1    1092.       1089.       6999.       6999.       6999.       6999.       6999.       6999.       6999.       6999.    
   2    1089.       1084.       1079.       6999.       6999.       1072.       1071.       1071.       6999.       6999.    
   3    6999.       1076.       1071.       1067.       1066.       1067.       1067.       1068.       6999.       6999.    
   4    1067.       1068.       1065.       1061.       1059.       1059.       1060.       1063.       1064.       6999.    
   5    1063.       1060.       1057.       1055.       1055.       1055.       1056.       1058.       1062.       1065.    
   6    1059.       1055.       1051.       1050.       1050.       1051.       1053.       1055.       1059.       1064.    
   7    1056.       1049.       1045.       1044.       1045.       1047.       1049.       1052.       1055.       6999.    
   8    6999.       1043.       1040.       1039.       1040.       1042.       1044.       1048.       1050.       6999.    
   9    6999.       1035.       1034.       1034.       1035.       1037.       1038.       1041.       1045.       6999.    
  10    6999.       1028.       1028.       1029.       1030.       1032.       1034.       1036.       1041.       1046.    
  11    6999.       1020.       1021.       1024.       1026.       1029.       1031.       1033.       1037.       6999.    
  12    1003.       1010.       1014.       1019.       1023.       1026.       1029.       1032.       1036.       6999.    
  13    996.5       1001.       1009.       1014.       1020.       1025.       1029.       1034.       1037.       6999.    
  14    6999.       1008.       1011.       1016.       1021.       1026.       1030.       1035.       1039.       6999.    
  15    6999.       6999.       1021.       1023.       1027.       1029.       6999.       6999.       6999.       6999.    



                       INITIAL HEAD FOR LAYER   2
 READING ON UNIT   75 WITH FORMAT: (10F10.3)           

            1           2           3           4           5           6           7           8           9          10
 ........................................................................................................................
   1    1092.       1089.       6999.       6999.       6999.       6999.       6999.       6999.       6999.       6999.    
   2    1089.       1084.       1079.       6999.       6999.       1072.       1071.       1071.       6999.       6999.    
   3    6999.       1076.       1071.       1067.       1066.       1067.       1067.       1068.       6999.       6999.    
   4    1067.       1068.       1065.       1061.       1059.       1059.       1060.       1063.       1064.       6999.    
   5    1063.       1060.       1057.       1055.       1055.       1055.       1056.       1058.       1062.       1065.    
   6    1059.       1055.       1051.       1050.       1050.       1051.       1053.       1055.       1059.       1064.    
   7    1056.       1049.       1045.       1044.       1045.       1047.       1049.       1052.       1055.       6999.    
   8    6999.       1043.       1040.       1039.       1040.       1042.       1044.       1048.       1050.       6999.    
   9    6999.       1035.       1034.       1034.       1035.       1037.       1038.       1041.       1045.       6999.    
  10    6999.       1028.       1028.       1029.       1030.       1032.       1034.       1036.       1041.       1046.    
  11    6999.       1020.       1021.       1024.       1026.       1029.       1031.       1033.       1037.       6999.    
  12    1003.       1010.       1014.       1019.       1023.       1026.       1029.       1032.       1036.       6999.    
  13    996.5       1001.       1009.       1014.       1020.       1025.       1029.       1034.       1037.       6999.    
  14    6999.       1008.       1011.       1016.       1021.       1026.       1030.       1035.       1039.       6999.    
  15    6999.       6999.       1021.       1023.       1027.       1029.       6999.       6999.       6999.       6999.    

 OUTPUT CONTROL IS SPECIFIED ONLY AT TIME STEPS FOR WHICH OUTPUT IS DESIRED
 HEADS WILL BE SAVED WITH FORMAT: (10F10.3)           
 SAVED HEADS WILL BE LABELED
 HEAD PRINT FORMAT CODE IS   4    DRAWDOWN PRINT FORMAT CODE IS   0
 HEADS WILL BE SAVED ON UNIT   58    DRAWDOWNS WILL BE SAVED ON UNIT    0
 # MODFLOW-NWT

 NWT1 -- Newton Solver, VERSION 1.1.4, 4/01/2018
         INPUT READ FROM UNIT 13

 SPECIFIED OPTION:
 SOLVER INPUT VALUES ARE SPECIFIED BY USER
 ***XMD linear solver will be used***
 
   CONVERGENCE CRITERION OF   0.100000E-02 FOR HEAD SOLUTION
   AND A TOLERANCE OF   0.100000E+01 FOR FLOW SOLUTION AND 
   A MAXIMUM OF   500 OUTER ITERATIONS. 


   D-B-D REDUCTION FACTOR OF    0.960000E+00 AND 
   A D-B-D INCREASE FACTOR OF    0.100000E-03 AND 
   A D-B-D RELAXATION OF    0.000000E+00 AND 
   A MOMENTUM FACTOR OF    0.100000E+00 .


 ***BACKTRACKING IS INACTIVE***
 XMD -- LINEAR SOLUTION BY XMD PACKAGE VERSION 1.30
     BY MOTOMU IBARAKI, OHIO STATE UNIVERSITY, COLOMBUS, OH
                 INPUT READ FROM UNIT 13
 ACCELERATION METHOD                    (IACL) =         1
 NODE ORDERING FLAG                   (NORDER) =         0
 LEVEL OF FILL                         (LEVEL) =         5
 MAXIMUM NUMBER OF ORTHOGONALIZATIONS  (NORTH) =         7
 INDEX FOR USING REDUCED SYSTEM      (IREDSYS) =         1
 RESID. REDUCTION CONVERGE CRITERION  (RRCTOL) =  0.000000E+00
 INDEX FOR USING DROP TOLERANCE     (IDROPTOL) =         0
 DROP TOLERANCE VALUE                  (EPSRN) =  0.500000E-02
 CONVERGENCE CRITERIA OF           (HCLOSEXMD) =  0.100000E-02
 MAX. NUMBER OF LINEAR ITERATIONS  (MXITERXMD) =        50


 UPW1 -- UPSTREAM WEIGHTING FLOW PACKAGE, VERSION 1.1.4, 4/01/2018
         INPUT READ FROM UNIT  7

 #Layer-Property Flow Package input for test simulation 2
 No named parameters

   LAYER FLAGS:
 LAYER       LAYTYP          LAYAVG    CHANI           LAYVKA           LAYWET
 ---------------------------------------------------------------------------
    1             1             0     1.000E+00             0             0
    2             1             0     1.000E+00             0             0

   INTERPRETATION OF LAYER FLAGS:
                        INTERBLOCK     HORIZONTAL    DATA IN
         LAYER TYPE   TRANSMISSIVITY   ANISOTROPY   ARRAY VKA   WETTABILITY
 LAYER   (LAYTYP)        (LAYAVG)      (CHANI)     (LAYVKA)       (LAYWET)
 ---------------------------------------------------------------------------
    1   CONVERTIBLE      HARMONIC     1.000E+00    VERTICAL K  NON-WETTABLE
    2   CONVERTIBLE      HARMONIC     1.000E+00    VERTICAL K  NON-WETTABLE



              HYD. COND. ALONG ROWS FOR LAYER   1
 READING ON UNIT    7 WITH FORMAT: (10F5.0)            

            1           2           3           4           5           6           7           8           9          10
 ........................................................................................................................
   1   3.0000E-03  3.0000E-03   0.000       0.000       0.000       0.000       0.000       0.000       0.000       0.000    
   2   6.0000E-04  3.0000E-03  3.0000E-03   0.000       0.000      6.0000E-04  6.0000E-04  6.0000E-04   0.000       0.000    
   3    0.000      6.0000E-04  3.0000E-03  3.0000E-03  6.0000E-04  6.0000E-04  6.0000E-04  6.0000E-04   0.000       0.000    
   4   6.0000E-04  6.0000E-04  6.0000E-04  3.0000E-03  3.0000E-03  3.0000E-03  6.0000E-04  6.0000E-04  6.0000E-04   0.000    
   5   6.0000E-04  6.0000E-04  6.0000E-04  3.0000E-03  3.0000E-03  3.0000E-03  3.0000E-03  3.0000E-03  3.0000E-03  3.0000E-03
   6   6.0000E-04  6.0000E-04  6.0000E-04  3.0000E-03  3.0000E-03  3.0000E-03  3.0000E-03  3.0000E-03  6.0000E-04  6.0000E-04
   7   6.0000E-04  6.0000E-04  6.0000E-04  3.0000E-03  3.0000E-03  3.0000E-03  3.0000E-03  3.0000E-03  6.0000E-04   0.000    
   8    0.000      6.0000E-04  6.0000E-04  3.0000E-03  3.0000E-03  3.0000E-03  3.0000E-03  6.0000E-04  6.0000E-04   0.000    
   9    0.000      6.0000E-04  6.0000E-04  3.0000E-03  3.0000E-03  3.0000E-03  3.0000E-03  6.0000E-04  6.0000E-04   0.000    
  10    0.000      6.0000E-04  6.0000E-04  3.0000E-03  3.0000E-03  3.0000E-03  3.0000E-03  6.0000E-04  6.0000E-04  6.0000E-04
  11    0.000      6.0000E-04  6.0000E-04  3.0000E-03  3.0000E-03  3.0000E-03  3.0000E-03  6.0000E-04  6.0000E-04   0.000    
  12   6.0000E-04  6.0000E-04  3.0000E-03  3.0000E-03  3.0000E-03  3.0000E-03  3.0000E-03  6.0000E-04  6.0000E-04   0.000    
  13   3.0000E-03  3.0000E-03  3.0000E-03  3.0000E-03  3.0000E-03  3.0000E-03  3.0000E-03  3.0000E-03  3.0000E-03   0.000    
  14    0.000      6.0000E-04  6.0000E-04  6.0000E-04  6.0000E-04  6.0000E-04  6.0000E-04  6.0000E-04  3.0000E-03   0.000    
  15    0.000       0.000      6.0000E-04  6.0000E-04  6.0000E-04  6.0000E-04   0.000       0.000       0.000       0.000    

      VERTICAL HYD. COND. =  8.000000E-05 FOR LAYER   1

         SPECIFIC STORAGE =  1.000000E-06 FOR LAYER   1



                     SPECIFIC YIELD FOR LAYER   1
 READING ON UNIT    7 WITH FORMAT: (10F5.0)            

            1           2           3           4           5           6           7           8           9          10
 ........................................................................................................................
   1   0.2000      0.2000       0.000       0.000       0.000       0.000       0.000       0.000       0.000       0.000    
   2   0.1000      0.2000      0.2000       0.000       0.000      0.1000      0.1000      0.1000       0.000       0.000    
   3    0.000      0.1000      0.2000      0.2000      0.1000      0.1000      0.1000      0.1000       0.000       0.000    
   4   0.1000      0.1000      0.1000      0.2000      0.2000      0.2000      0.1000      0.1000      0.1000       0.000    
   5   0.1000      0.1000      0.1000      0.2000      0.2000      0.2000      0.2000      0.2000      0.2000      0.2000    
   6   0.1000      0.1000      0.1000      0.2000      0.2000      0.2000      0.2000      0.2000      0.1000      0.1000    
   7   0.1000      0.1000      0.1000      0.2000      0.2000      0.2000      0.2000      0.2000      0.1000       0.000    
   8    0.000      0.1000      0.1000      0.2000      0.2000      0.2000      0.2000      0.1000      0.1000       0.000    
   9    0.000      0.1000      0.1000      0.2000      0.2000      0.2000      0.2000      0.1000      0.1000       0.000    
  10    0.000      0.1000      0.1000      0.2000      0.2000      0.2000      0.2000      0.1000      0.1000      0.1000    
  11    0.000      0.1000      0.1000      0.2000      0.2000      0.2000      0.2000      0.1000      0.1000       0.000    
  12   0.1000      0.1000      0.2000      0.2000      0.2000      0.2000      0.2000      0.1000      0.1000       0.000    
  13   0.2000      0.2000      0.2000      0.2000      0.2000      0.2000      0.2000      0.2000      0.2000       0.000    
  14    0.000      0.1000      0.1000      0.1000      0.1000      0.1000      0.1000      0.1000      0.2000       0.000    
  15    0.000       0.000      0.1000      0.1000      0.1000      0.1000       0.000       0.000       0.000       0.000    



              HYD. COND. ALONG ROWS FOR LAYER   2
 READING ON UNIT    7 WITH FORMAT: (10F5.0)            

            1           2           3           4           5           6           7           8           9          10
 ........................................................................................................................
   1   3.0000E-03  3.0000E-03   0.000       0.000       0.000       0.000       0.000       0.000       0.000       0.000    
   2   6.0000E-04  3.0000E-03  3.0000E-03   0.000       0.000      6.0000E-04  6.0000E-04  6.0000E-04   0.000       0.000    
   3    0.000      6.0000E-04  3.0000E-03  3.0000E-03  6.0000E-04  6.0000E-04  6.0000E-04  6.0000E-04   0.000       0.000    
   4   6.0000E-04  6.0000E-04  6.0000E-04  3.0000E-03  3.0000E-03  3.0000E-03  6.0000E-04  6.0000E-04  6.0000E-04   0.000    
   5   6.0000E-04  6.0000E-04  6.0000E-04  3.0000E-03  3.0000E-03  3.0000E-03  3.0000E-03  3.0000E-03  3.0000E-03  3.0000E-03
   6   6.0000E-04  6.0000E-04  6.0000E-04  3.0000E-03  3.0000E-03  3.0000E-03  3.0000E-03  3.0000E-03  6.0000E-04  6.0000E-04
   7   6.0000E-04  6.0000E-04  6.0000E-04  3.0000E-03  3.0000E-03  3.0000E-03  3.0000E-03  3.0000E-03  6.0000E-04   0.000    
   8    0.000      6.0000E-04  6.0000E-04  3.0000E-03  3.0000E-03  3.0000E-03  3.0000E-03  6.0000E-04  6.0000E-04   0.000    
   9    0.000      6.0000E-04  6.0000E-04  3.0000E-03  3.0000E-03  3.0000E-03  3.0000E-03  6.0000E-04  6.0000E-04   0.000    
  10    0.000      6.0000E-04  6.0000E-04  3.0000E-03  3.0000E-03  3.0000E-03  3.0000E-03  6.0000E-04  6.0000E-04  6.0000E-04
  11    0.000      6.0000E-04  6.0000E-04  3.0000E-03  3.0000E-03  3.0000E-03  3.0000E-03  6.0000E-04  6.0000E-04   0.000    
  12   6.0000E-04  6.0000E-04  3.0000E-03  3.0000E-03  3.0000E-03  3.0000E-03  3.0000E-03  6.0000E-04  6.0000E-04   0.000    
  13   3.0000E-03  3.0000E-03  3.0000E-03  3.0000E-03  3.0000E-03  3.0000E-03  3.0000E-03  3.0000E-03  3.0000E-03   0.000    
  14    0.000      6.0000E-04  6.0000E-04  6.0000E-04  6.0000E-04  6.0000E-04  6.0000E-04  6.0000E-04  3.0000E-03   0.000    
  15    0.000       0.000      6.0000E-04  6.0000E-04  6.0000E-04  6.0000E-04   0.000       0.000       0.000       0.000    

      VERTICAL HYD. COND. =  8.000000E-05 FOR LAYER   2

         SPECIFIC STORAGE =  1.000000E-06 FOR LAYER   2



                     SPECIFIC YIELD FOR LAYER   2
 READING ON UNIT    7 WITH FORMAT: (10F5.0)            

            1           2           3           4           5           6           7           8           9          10
 ........................................................................................................................
   1   0.2000      0.2000       0.000       0.000       0.000       0.000       0.000       0.000       0.000       0.000    
   2   0.1000      0.2000      0.2000       0.000       0.000      0.1000      0.1000      0.1000       0.000       0.000    
   3    0.000      0.1000      0.2000      0.2000      0.1000      0.1000      0.1000      0.1000       0.000       0.000    
   4   0.1000      0.1000      0.1000      0.2000      0.2000      0.2000      0.1000      0.1000      0.1000       0.000    
   5   0.1000      0.1000      0.1000      0.2000      0.2000      0.2000      0.2000      0.2000      0.2000      0.2000    
   6   0.1000      0.1000      0.1000      0.2000      0.2000      0.2000      0.2000      0.2000      0.1000      0.1000    
   7   0.1000      0.1000      0.1000      0.2000      0.2000      0.2000      0.2000      0.2000      0.1000       0.000    
   8    0.000      0.1000      0.1000      0.2000      0.2000      0.2000      0.2000      0.1000      0.1000       0.000    
   9    0.000      0.1000      0.1000      0.2000      0.2000      0.2000      0.2000      0.1000      0.1000       0.000    
  10    0.000      0.1000      0.1000      0.2000      0.2000      0.2000      0.2000      0.1000      0.1000      0.1000    
  11    0.000      0.1000      0.1000      0.2000      0.2000      0.2000      0.2000      0.1000      0.1000       0.000    
  12   0.1000      0.1000      0.2000      0.2000      0.2000      0.2000      0.2000      0.1000      0.1000       0.000    
  13   0.2000      0.2000      0.2000      0.2000      0.2000      0.2000      0.2000      0.2000      0.2000       0.000    
  14    0.000      0.1000      0.1000      0.1000      0.1000      0.1000      0.1000      0.1000      0.2000       0.000    
  15    0.000       0.000      0.1000      0.1000      0.1000      0.1000       0.000       0.000       0.000       0.000    

 WEL -- WELL PACKAGE FOR NWT VERSION 1.1.4,  4/01/2018 INPUT READ FROM UNIT   16
 #Well Package input for test simulation 2
 No named parameters
 MAXIMUM OF     10 ACTIVE WELLS AT ONE TIME
 CELL-BY-CELL FLOWS WILL BE PRINTED WHEN ICBCFL NOT 0
 No named parameters


     0 Well parameters

 GHB -- GENERAL-HEAD BOUNDARY PACKAGE, VERSION 7, 5/2/2005
         INPUT READ FROM UNIT   17
 No named parameters
 MAXIMUM OF      2 ACTIVE GHB CELLS AT ONE TIME
 CELL-BY-CELL FLOWS WILL BE PRINTED WHEN ICBCFL NOT 0


     0 GHB parameters

 SFR7 -- STREAMFLOW ROUTING PACKAGE, VERSION 1.0.5, 2012-04-05
         INPUT READ FROM UNIT  15
 #SFR2 Package input for Test Simulation 2
 No named parameters

 PROCESSING SFR2 OPTIONS
 
          1 Specified inflow files will be read with a maximum of         50 row entries per file

 END PROCESSING SFR2 OPTIONS
 


 NUMBER OF STREAM REACHES IS   38

 NUMBER OF STREAM SEGMENTS IS   10

 NUMBER OF STREAM PARAMETERS IS    0

 NUMBER OF STREAM SEGMENTS DEFINED USING PARAMETERS IS              0

 MAXIMUM ERROR FOR STREAM LEAKAGE RATES IS  1.00E-06

 CONSTANT FOR MANNINGS EQUATION IS  1.4860E+00



 STREAM OUTPUT WILL BE WRITTEN TO FILE ON UNIT   81


   STREAM NETWORK DESCRIPTION: 

   LAYER    ROW    COL   SEGMENT   REACH     LENGTH
                          NUMBER   NUMBER    IN CELL        
   --------------------------------------------------
      2      1      1       1        1    4.5000E+03
      2      2      2       1        2    7.0000E+03
      2      3      3       1        3    6.0000E+03
      2      3      4       1        4    5.5500E+03
      2      4      5       2        1    6.5000E+03
      2      5      6       2        2    5.0000E+03
      2      6      6       2        3    5.0000E+03
      2      7      6       2        4    5.0000E+03
      2      8      6       2        5    5.0000E+03
      2      3      5       3        1    5.0000E+03
      2      3      6       3        2    5.0000E+03
      2      3      7       3        3    4.5000E+03
      2      4      8       3        4    6.0000E+03
      2      5      8       3        5    5.0000E+03
      2      6      8       3        6    2.0000E+03
      2      5     10       4        1    2.5000E+03
      2      5      9       4        2    5.0000E+03
      2      6      8       4        3    3.5000E+03
      2      6      8       5        1    4.0000E+03
      2      7      7       5        2    5.0000E+03
      2      8      7       5        3    3.5000E+03
      2      8      6       5        4    2.5000E+03
      2      9      6       6        1    5.0000E+03
      2     10      7       6        2    5.0000E+03
      2     11      7       6        3    5.0000E+03
      2     12      7       6        4    5.0000E+03
      2     13      7       6        5    2.0000E+03
      2     14      9       7        1    5.0000E+03
      2     13      8       7        2    5.5000E+03
      2     13      7       7        3    5.0000E+03
      2     13      6       8        1    5.0000E+03
      2     13      5       8        2    5.0000E+03
      2     13      4       8        3    5.0000E+03
      2     13      3       8        4    5.0000E+03
      2     13      2       8        5    5.0000E+03
      2     13      1       8        6    3.0000E+03
      2      4      5       9        1    1.0000E+01
      2      4      5      10        1    1.0000E+01




 UZF1 -- UNSATURATED FLOW PACKAGE, VERSION 1.5, 09/10/2019
         INPUT READ FROM UNIT 19
 #UZF Package input for test simulation 2
 No named parameters

 PROCESSING UZF OPTIONS
 
 
 INITIAL WATER CONTENT (THTI) WILL BE 
READ FOR THE FIRST SS OR TR STRESS PERIOD
 

 END PROCESSING UZF OPTIONS



            AREAL EXTENT OF UZ FLOW
 READING ON UNIT   19 WITH FORMAT: (20I4)              

                1           2           3           4           5           6           7           8           9          10
 ............................................................................................................................
   1            2           2           0           0           0           0           0           0           0           0
   2            2           2           2           0           0           2           2           2           0           0
   3            0           2           2           2           2           2           2           2           0           0
   4            2           2           2           2           2           2           2           2           2           0
   5            2           2           2           2           2           2           2           2           2           2
   6            2           2           2           2           2           2           2           2           2           2
   7            2           2           2           2           2           2           2           2           2           0
   8            0           2           2           2           2           2           2           2           2           0
   9            0           2           2           2           2           2           2           2           2           0
  10            0           2           2           2           2           2           2           2           2           2
  11            0           2           2           2           2           2           2           2           2           0
  12            2           2           2           2           2           2           2           2           2           0
  13            2           2           2           2           2           2           2           2           2           0
  14            0           2           2           2           2           2           2           2           2           0
  15            0           0           2           2           2           2           0           0           0           0
 OPTION 3 -- RECHARGE IN UZF TO HIGHEST ACTIVE NODE IN EACH VERTICAL COLUMN



            ROUTING OVERLAND RUNOFF
 READING ON UNIT   19 WITH FORMAT: (20I4)              

                1           2           3           4           5           6           7           8           9          10
 ............................................................................................................................
   1            1           1           0           0           0           0           0           0           0           0
   2            1           1           1           0           0           3           3           3           0           0
   3            0           1           1           1           3           3           3           3           0           0
   4            8           8           2           2           2           2           2           3           3           0
   5            8           8           8           8           2           2           2           3           4           4
   6            8           8           8           8           8           2           2           4           4           4
   7            8           8           8           8           8           2           5           5           5           0
   8            0           8           8           8           8           2           5           5           5           0
   9            0           8           8           8           8           6           6           6           6           0
  10            0           8           8           8           8           6           6           6           6           6
  11            0           8           8           8           8           8           6           6           7           0
  12            8           8           8           8           8           8           6           7           7           0
  13            8           8           8           8           8           8           7           7           7           0
  14            0           8           8           8           8           8           7           7           7           0
  15            0           0           8           8           8           8           0           0           0           0

     BROOKS-COREY EPSILON =   3.50000    

  SATURATED WATER CONTENT =  0.300000    



              INITIAL WATER CONTENT
 READING ON UNIT   19 WITH FORMAT: (FREE)              

            1           2           3           4           5           6           7           8           9          10
 ........................................................................................................................
   1   0.1100      0.1100       0.000       0.000       0.000       0.000       0.000       0.000       0.000       0.000    
   2   0.2100      0.1100      0.1100       0.000       0.000      0.2100      0.2100      0.2100       0.000       0.000    
   3    0.000      0.2100      0.1100      0.1100      0.2100      0.2100      0.2100      0.2100       0.000       0.000    
   4   0.2100      0.2100      0.2100      0.1100      0.1100      0.1100      0.2100      0.2100      0.2100       0.000    
   5   0.2100      0.2100      0.2100      0.1100      0.1100      0.1100      0.1100      0.1100      0.1100      0.1100    
   6   0.2100      0.2100      0.2100      0.1100      0.1100      0.1100      0.1100      0.1100      0.2100      0.2100    
   7   0.2100      0.2100      0.2100      0.1100      0.1100      0.1100      0.1100      0.1100      0.2100       0.000    
   8    0.000      0.2100      0.2100      0.1100      0.1100      0.1100      0.1100      0.2100      0.2100       0.000    
   9    0.000      0.2100      0.2100      0.1100      0.1100      0.1100      0.1100      0.2100      0.2100       0.000    
  10    0.000      0.2100      0.2100      0.1100      0.1100      0.1100      0.1100      0.2100      0.2100      0.2100    
  11    0.000      0.2100      0.2100      0.1100      0.1100      0.1100      0.1100      0.2100      0.2100       0.000    
  12   0.2100      0.2100      0.1100      0.1100      0.1100      0.1100      0.1100      0.2100      0.2100       0.000    
  13   0.1100      0.1100      0.1100      0.1100      0.1100      0.1100      0.1100      0.1100      0.1100       0.000    
  14    0.000      0.2100      0.2100      0.2100      0.2100      0.2100      0.2100      0.2100      0.1100       0.000    
  15    0.000       0.000      0.2100      0.2100      0.2100      0.2100       0.000       0.000       0.000       0.000    

UNSATURATED FLOW RESULTS WILL BE PRINTED TO SEPARATE FILES FOR SELECTED MODEL CELLS, AND TIME STEPS AS DEFINED BY OUTPUT CONTROL PACKAGE 

SELECTED MODEL CELLS ARE: 
 ROW NUMBER  COLUMN NUMBER  FORTRAN UNIT NUMBER  OUTPUT OPTION


       4             5                 65                 1
       4             5                 66                 2
       4             5                 67                 3
       0             0                 68                 4

 LAK7 -- LAKE PACKAGE, VERSION 7, 1/07/2013 INPUT READ FROM UNIT 33
 # Example input for specifying lake bathymetry information using external
 # text files using key word option “TABLEINPUT”
 No named parameters

 SPACE ALLOCATION FOR    150 GRID CELL FACES ADJACENT TOLAKES
 MAXIMUM NUMBER OF LAKES IS  1 FOR THIS SIMULATION
 CELL-BY-CELL SEEPAGES WILL NOT BE PRINTED OR SAVED


 NEWTON ITERATION METHOD FOR COMPUTING LAKE STAGE DURING STEADY-STATE STRESS PERIODS HAS BEEN MODIFIED:
 SPECIFIED THETA OF  0.800 WILL BE AUTOMATICALLY CHANGED TO 1.0 FOR ALL STEADY STATE STRESS PERIODS.
 MAXIMUM NUMBER OF STEADY-STATE ITERATIONS (NSSITR) =    50
 CLOSURE CRITERIA FOR STEADY-STATE LAKE STAGE (SSCNCR) =  1.000000E-04





   3 GAGING STATIONS WERE SPECIFIED.
     (Lakes are identified by a negative value of the Lake Number)
     RECORDS WILL BE WRITTEN TO SEPARATE OUTPUT FILES REPRESENTED BY FOLLOWING UNIT NUMBERS:

 Stream Gages:
  GAGE #   SEGMENT   REACH   UNIT   OUTTYPE
       1       1       4      83       4
       2       2       1      84       4
 Lake Gages:
  GAGE #    LAKE     UNIT   OUTTYPE
       3      -1    -801       3




1
                            STRESS PERIOD NO.    1, LENGTH =   2628000.    
                            -----------------------------------------------

                              NUMBER OF TIME STEPS =     1

                               MULTIPLIER FOR DELT =     1.000

                            INITIAL TIME STEP SIZE =   2628000.    

 WELL NO.  LAYER   ROW   COL   STRESS RATE         
 --------------------------------------------------
      1      2      6      4      -2.000    
      2      2      6      5      -2.000    
      3      2      7      4      -2.000    
      4      2      7      5      -2.000    
      5      2      8      4      -2.000    
      6      2      8      5      -2.000    
      7      2      9      4      -2.000    
      8      2      9      5      -2.000    
      9      2     10      4      -2.000    
     10      2     10      5      -2.000    

     10 WELLS

 BOUND. NO. LAYER   ROW   COL     STAGE      CONDUCTANCE         
 ----------------------------------------------------------------
      1      2     13      1       988.0          0.3800E-01
      2      2     14      9       1045.          0.3800E-01

      2 GHB CELLS



 CLASSIFICATION & COUNT OF STREAM SEGMENTS BASED ON SOURCE OF INFLOW:

                HEADWATER     DIVERSION     RECEIVES TRIBUTARY FLOW
                ---------     ---------     -----------------------
                     3              3               4



                    INPUT DATA FOR EACH STREAM SEGMENT
 ---------------------------------------------------------------------------------------------

 SEGMENT    SEG.     INFLOW   OVERLAND   STREAM    STREAM   ICALC  OUTFLOW  DIVERSION PRIORITY
    NO.    LENGTH     RATE     RUNOFF      ET       PPT.    METH.  TO SEG.  FROM SEG.    NO.

      1  2.305E+04 2.500E+01 0.000E+00 0.000E+00 0.000E+00    4        2        0        0
      2  2.650E+04 0.000E+00 0.000E+00 0.000E+00 0.000E+00    1        6        0        0
      3  2.750E+04 1.000E+01 0.000E+00 0.000E+00 0.000E+00    0        5        1        0
      4  1.100E+04 1.000E+01 0.000E+00 0.000E+00 0.000E+00    1        5        0        0
      5  1.500E+04 0.000E+00 0.000E+00 0.000E+00 0.000E+00    3        6        0        0
      6  2.200E+04 0.000E+00 0.000E+00 0.000E+00 0.000E+00    1        8        0        0
      7  1.550E+04 1.500E+02 0.000E+00 0.000E+00 0.000E+00    2        8        0        0
      8  2.800E+04 0.000E+00 0.000E+00 0.000E+00 0.000E+00    2        0        0        0
      9  1.000E+01 2.000E+03 0.000E+00 0.000E+00 0.000E+00    1       -1        1       -3
     10  1.000E+01 0.000E+00 0.000E+00 0.000E+00 0.000E+00    1        2       -1        0


         STREAMBED PROPERTIES AND STREAM DIMENSIONS

 SEGMENT     BED HYD. COND.      BED THICKNESS     ELEV.-TOP OF BED     WIDTH OF STREAM     DEPTH OF STREAM    STREAM ROUGHNESS
    No.     UPPER     LOWER     UPPER     LOWER     UPPER     LOWER     UPPER     LOWER     UPPER     LOWER   CHANNEL      BANK

     1  3.000E-05 3.000E-05 3.000E+00 3.000E+00 1.095E+03 1.075E+03
     2  3.000E-05 3.000E-05 3.000E+00 3.000E+00 1.075E+03 1.050E+03 1.200E+01 1.200E+01                     3.000E-02
     3  3.000E-05 3.000E-05 2.000E+00 2.000E+00 1.075E+03 1.060E+03 1.000E+01 6.000E+00 2.000E+00 1.000E+00
     4  3.000E-05 3.000E-05 3.000E+00 3.000E+00 1.080E+03 1.060E+03 1.000E+01 1.000E+01                     3.000E-02
     5  3.000E-05 3.000E-05 3.000E+00 3.000E+00 1.060E+03 1.045E+03
     6  3.000E-05 3.000E-05 3.000E+00 3.000E+00 1.045E+03 1.025E+03 1.200E+01 1.200E+01                     3.000E-02
     7  6.000E-05 6.000E-05 3.000E+00 3.000E+00 1.040E+03 1.025E+03                                         2.500E-02 4.500E-02
     8  6.000E-05 6.000E-05 3.000E+00 3.000E+00 1.025E+03 9.900E+02                                         2.500E-02 4.500E-02
     9  3.000E-05 3.000E-05 3.000E+00 3.000E+00 1.070E+03 1.050E+03 2.000E+01 2.000E+01                     3.000E-02
    10  3.000E-05 3.000E-05 3.000E+00 3.000E+00 1.083E+03 1.077E+03 2.000E+01 2.000E+01                     3.000E-02

  EIGHT POINT CROSS-SECTION DATA FOR SEGMENTS WITH ICALC = 2
    X VALUES X VALUES START FROM LEFT SIDE LOOKING DOWNSTREAM

     SEGMENT NO.        X1        X2        X3        X4        X5        X6        X7        X8
            7      0.000E+00 1.000E+01 8.000E+01 1.000E+02 1.500E+02 1.700E+02 2.400E+02 2.500E+02
            8      0.000E+00 1.000E+01 8.000E+01 1.000E+02 1.500E+02 1.700E+02 2.400E+02 2.500E+02

    Z VALUES ARE RELATIVE TO STREAMBED ELEVATION

     SEGMENT NO.          Z1        Z2        Z3        Z4        Z5        Z6        Z7        Z8
            7      2.000E+01 1.300E+01 1.000E+01 2.000E+00 0.000E+00 1.000E+01 1.300E+01 2.000E+01
            8      2.500E+01 1.700E+01 1.300E+01 4.000E+00 0.000E+00 1.000E+01 1.600E+01 2.000E+01

 STREAMFLOW RELATION WITH DEPTH IS BASED ON EQUATION Q = CDPTH*(DEPTH)**FDPTH
 STREAMFLOW RELATION WITH WIDTH IS BASED ON EQUATION Q = AWDTH*(WIDTH)**BWDTH

 SEGMENT NO.      CDPTH     FDPTH    AWDTH     BWDTH

          5 3.000E-01 3.500E-01 3.800E+00 6.000E-01

 STREAMFLOW RELATION WITH DEPTH AND WIDTH IS BASED ON TABULATED VALUES

  SEGMENT NO.   STREAMFLOW       DEPTH       WIDTH

          1     5.0000E-01   2.5000E-01   3.0000E+00
          1     1.0000E+00   4.0000E-01   3.5000E+00
          1     2.0000E+00   5.5000E-01   4.2000E+00
          1     4.0000E+00   7.0000E-01   5.3000E+00
          1     7.0000E+00   8.0000E-01   7.0000E+00
          1     1.0000E+01   9.0000E-01   8.5000E+00
          1     2.0000E+01   1.1000E+00   1.2000E+01
          1     3.0000E+01   1.2500E+00   1.4000E+01
          1     5.0000E+01   1.4000E+00   1.7000E+01
          1     7.5000E+01   1.7000E+00   2.0000E+01
          1     1.0000E+02   1.8000E+00   2.2000E+01



TABULAR INFLOWS WERE READ FOR SEGMENT      1
FROM FILE UNIT NUMBER     55

          TIMES                    INFLOWS
         0.0000000000E+00     0.2000000000E+02
         0.6440000000E+06     0.1800000000E+02
         0.1290000000E+07     0.1800000000E+02
         0.1930000000E+07     0.5700000000E+02
         0.2580000000E+07     0.2200000000E+02
         0.3220000000E+07     0.2100000000E+02
         0.3860000000E+07     0.2600000000E+02
         0.4510000000E+07     0.2500000000E+02
         0.5150000000E+07     0.2500000000E+02
         0.5800000000E+07     0.2700000000E+02
         0.6440000000E+07     0.2400000000E+02
         0.7080000000E+07     0.2300000000E+02
         0.7730000000E+07     0.2400000000E+02
         0.8370000000E+07     0.2400000000E+02
         0.9020000000E+07     0.2500000000E+02
         0.9660000000E+07     0.2300000000E+02
         0.1030000000E+08     0.2100000000E+02
         0.1090000000E+08     0.3900000000E+02
         0.1160000000E+08     0.2900000000E+02
         0.1220000000E+08     0.2520000000E+04
         0.1290000000E+08     0.1600000000E+03
         0.1350000000E+08     0.1000000000E+03
         0.1420000000E+08     0.7300000000E+02
         0.1480000000E+08     0.5030000000E+03
         0.1550000000E+08     0.9580000000E+03
         0.1610000000E+08     0.3040000000E+03
         0.1670000000E+08     0.1670000000E+03
         0.1740000000E+08     0.1190000000E+03
         0.1800000000E+08     0.1750000000E+03
         0.1870000000E+08     0.6270000000E+03
         0.1930000000E+08     0.2780000000E+03
         0.2000000000E+08     0.2880000000E+03
         0.2060000000E+08     0.2040000000E+03
         0.2130000000E+08     0.1480000000E+03
         0.2190000000E+08     0.3610000000E+03
         0.2250000000E+08     0.1650000000E+03
         0.2320000000E+08     0.1280000000E+03
         0.2380000000E+08     0.1170000000E+03
         0.2450000000E+08     0.7900000000E+02
         0.2510000000E+08     0.6100000000E+02
         0.2580000000E+08     0.4600000000E+02
         0.2640000000E+08     0.3700000000E+02
         0.2700000000E+08     0.2500000000E+02
         0.2770000000E+08     0.1900000000E+02
         0.2830000000E+08     0.1400000000E+02
         0.2900000000E+08     0.1500000000E+02
         0.2960000000E+08     0.1100000000E+02
         0.3030000000E+08     0.8000000000E+01
         0.3090000000E+08     0.4400000095E+01
         0.3160000000E+08     0.2500000000E+01



            AREAL INFILTRATION RATE
 READING ON UNIT   19 WITH FORMAT: (10F4.0)            

            1           2           3           4           5           6           7           8           9          10
 ........................................................................................................................
   1   1.0000E-10  2.0000E-10   0.000       0.000       0.000       0.000       0.000       0.000       0.000       0.000    
   2   2.0000E-10  1.0000E-10  2.0000E-10   0.000       0.000      8.0000E-10  8.0000E-10  5.0000E-10   0.000       0.000    
   3    0.000      5.0000E-10  1.0000E-10  1.0000E-10  8.0000E-10  8.0000E-10  5.0000E-10  5.0000E-10   0.000       0.000    
   4   8.0000E-10  5.0000E-10  1.0000E-10  1.0000E-10  1.0000E-10  1.0000E-10  1.0000E-10  1.0000E-10  2.0000E-10   0.000    
   5   8.0000E-10  5.0000E-10  1.0000E-10  1.0000E-10  1.0000E-10  1.0000E-10  1.0000E-10  1.0000E-10  1.0000E-10  1.0000E-10
   6   8.0000E-10  5.0000E-10  5.0000E-10  2.0000E-10  2.0000E-10  1.0000E-10  1.0000E-10  1.0000E-10  1.0000E-10  5.0000E-10
   7   8.0000E-10  5.0000E-10  5.0000E-10  2.0000E-10  2.0000E-10  1.0000E-10  1.0000E-10  2.0000E-10  2.0000E-10   0.000    
   8    0.000      5.0000E-10  5.0000E-10  2.0000E-10  2.0000E-10  1.0000E-10  1.0000E-10  2.0000E-10  5.0000E-10   0.000    
   9    0.000      5.0000E-10  5.0000E-10  2.0000E-10  2.0000E-10  1.0000E-10  1.0000E-10  2.0000E-10  5.0000E-10   0.000    
  10    0.000      5.0000E-10  5.0000E-10  2.0000E-10  2.0000E-10  1.0000E-10  1.0000E-10  2.0000E-10  5.0000E-10  8.0000E-10
  11    0.000      1.0000E-10  1.0000E-10  1.0000E-10  1.0000E-10  1.0000E-10  1.0000E-10  2.0000E-10  5.0000E-10   0.000    
  12   1.0000E-10  1.0000E-10  1.0000E-10  1.0000E-10  1.0000E-10  1.0000E-10  1.0000E-10  1.0000E-10  2.0000E-10   0.000    
  13   1.0000E-10  1.0000E-10  2.0000E-10  2.0000E-10  2.0000E-10  2.0000E-10  2.0000E-10  1.0000E-10  1.0000E-10   0.000    
  14    0.000      2.0000E-10  5.0000E-10  5.0000E-10  5.0000E-10  5.0000E-10  5.0000E-10  2.0000E-10  1.0000E-10   0.000    
  15    0.000       0.000      8.0000E-10  8.0000E-10  8.0000E-10  8.0000E-10   0.000       0.000       0.000       0.000    

                  ET RATE =  5.000000E-08

      ET EXTINCTION DEPTH =   15.0000    



           EXTINCTION WATER CONTENT
 READING ON UNIT   19 WITH FORMAT: (10F4.0)            

            1           2           3           4           5           6           7           8           9          10
 ........................................................................................................................
   1   0.1000      0.1000       0.000       0.000       0.000       0.000       0.000       0.000       0.000       0.000    
   2   0.2000      0.1000      0.1000       0.000       0.000      0.2000      0.2000      0.2000       0.000       0.000    
   3    0.000      0.2000      0.1000      0.1000      0.2000      0.2000      0.2000      0.2000       0.000       0.000    
   4   0.2000      0.2000      0.2000      0.1000      0.1000      0.1000      0.2000      0.2000      0.2000      0.1000    
   5   0.2000      0.2000      0.2000      0.1000      0.1000      0.1000      0.1000      0.1000      0.1000      0.1000    
   6   0.2000      0.2000      0.2000      0.1000      0.1000      0.1000      0.1000      0.1000      0.2000      0.2000    
   7   0.2000      0.2000      0.2000      0.1000      0.1000      0.1000      0.1000      0.1000      0.2000       0.000    
   8    0.000      0.2000      0.2000      0.1000      0.1000      0.1000      0.1000      0.2000      0.2000       0.000    
   9    0.000      0.2000      0.2000      0.1000      0.1000      0.1000      0.1000      0.2000      0.2000       0.000    
  10    0.000      0.2000      0.2000      0.1000      0.1000      0.1000      0.1000      0.2000      0.2000      0.2000    
  11    0.000      0.2000      0.2000      0.1000      0.1000      0.1000      0.1000      0.2000      0.2000       0.000    
  12   0.2000      0.2000      0.1000      0.1000      0.1000      0.1000      0.1000      0.2000      0.2000       0.000    
  13   0.1000      0.1000      0.1000      0.1000      0.1000      0.1000      0.1000      0.1000      0.1000       0.000    
  14    0.000      0.2000      0.2000      0.2000      0.2000      0.2000      0.2000      0.2000      0.1000       0.000    
  15    0.000       0.000      0.2000      0.2000      0.2000      0.2000       0.000       0.000       0.000       0.000    


 LAKE PACKAGE ACTIVE:  CALCULATED LAKE STAGE FOR EACH TIME STEP WILL BE STORED IN HNEW ARRAY.



 INITIAL LAKE STAGE:  LAKE    STAGE    SS MIN    SS MAX

                        1  1074.500  1074.500  1090.000




 If any subsequent steady-state stress periods, min. and max. stages for each lake will be read in Record 9a.




 STAGE/VOLUME RELATION FOR LAKE  1

      STAGE        VOLUME        AREA

   1.07450E+03   0.00000E+00   0.00000E+00
   1.07456E+03   1.06000E+04   1.67000E+05
   1.07463E+03   3.17000E+04   3.33000E+05
   1.07469E+03   6.33000E+04   5.00000E+05
   1.07475E+03   1.06000E+05   6.67000E+05
   1.07482E+03   1.58000E+05   8.33000E+05
   1.07488E+03   2.22000E+05   1.00000E+06
   1.07494E+03   2.96000E+05   1.17000E+06
   1.07501E+03   3.80000E+05   1.33000E+06
   1.07507E+03   4.75000E+05   1.50000E+06
   1.07513E+03   5.81000E+05   1.67000E+06
   1.07520E+03   6.97000E+05   1.83000E+06
   1.07526E+03   8.23000E+05   2.00000E+06
   1.07532E+03   9.61000E+05   2.17000E+06
   1.07539E+03   1.11000E+06   2.33000E+06
   1.07545E+03   1.27000E+06   2.50000E+06
   1.07551E+03   1.44000E+06   2.67000E+06
   1.07558E+03   1.61000E+06   2.83000E+06
   1.07564E+03   1.80000E+06   3.00000E+06
   1.07570E+03   2.01000E+06   3.17000E+06
   1.07577E+03   2.22000E+06   3.33000E+06
   1.07583E+03   2.44000E+06   3.50000E+06
   1.07589E+03   2.67000E+06   3.67000E+06
   1.07596E+03   2.91000E+06   3.83000E+06
   1.07602E+03   3.17000E+06   4.00000E+06
   1.07608E+03   3.43000E+06   4.17000E+06
   1.07615E+03   3.70000E+06   4.33000E+06
   1.07621E+03   3.99000E+06   4.50000E+06
   1.07627E+03   4.29000E+06   4.67000E+06
   1.07634E+03   4.59000E+06   4.83000E+06
   1.07640E+03   4.91000E+06   5.00000E+06
   1.07646E+03   5.24000E+06   5.17000E+06
   1.07653E+03   5.57000E+06   5.33000E+06
   1.07659E+03   5.92000E+06   5.50000E+06
   1.07665E+03   6.28000E+06   5.67000E+06
   1.07672E+03   6.65000E+06   5.83000E+06
   1.07678E+03   7.03000E+06   6.00000E+06
   1.07684E+03   7.42000E+06   6.17000E+06
   1.07691E+03   7.82000E+06   6.33000E+06
   1.07697E+03   8.23000E+06   6.50000E+06
   1.07703E+03   8.66000E+06   6.67000E+06
   1.07710E+03   9.09000E+06   6.83000E+06
   1.07716E+03   9.53000E+06   7.00000E+06
   1.07722E+03   9.99000E+06   7.17000E+06
   1.07729E+03   1.04000E+07   7.33000E+06
   1.07735E+03   1.09000E+07   7.50000E+06
   1.07741E+03   1.14000E+07   7.67000E+06
   1.07748E+03   1.19000E+07   7.83000E+06
   1.07754E+03   1.24000E+07   8.00000E+06
   1.07760E+03   1.29000E+07   8.17000E+06
   1.07767E+03   1.35000E+07   8.33000E+06
   1.07773E+03   1.40000E+07   8.50000E+06
   1.07779E+03   1.45000E+07   8.67000E+06
   1.07786E+03   1.51000E+07   8.83000E+06
   1.07792E+03   1.57000E+07   9.00000E+06
   1.07798E+03   1.63000E+07   9.17000E+06
   1.07805E+03   1.68000E+07   9.33000E+06
   1.07811E+03   1.74000E+07   9.50000E+06
   1.07817E+03   1.81000E+07   9.67000E+06
   1.07824E+03   1.87000E+07   9.83000E+06
   1.07830E+03   1.93000E+07   1.00000E+07
   1.07836E+03   2.00000E+07   1.02000E+07
   1.07843E+03   2.06000E+07   1.03000E+07
   1.07849E+03   2.13000E+07   1.05000E+07
   1.07855E+03   2.20000E+07   1.07000E+07
   1.07862E+03   2.26000E+07   1.08000E+07
   1.07868E+03   2.33000E+07   1.10000E+07
   1.07874E+03   2.40000E+07   1.12000E+07
   1.07881E+03   2.48000E+07   1.13000E+07
   1.07887E+03   2.55000E+07   1.15000E+07
   1.07893E+03   2.62000E+07   1.17000E+07
   1.07900E+03   2.70000E+07   1.18000E+07
   1.07906E+03   2.77000E+07   1.20000E+07
   1.07912E+03   2.85000E+07   1.22000E+07
   1.07919E+03   2.93000E+07   1.23000E+07
   1.07925E+03   3.01000E+07   1.25000E+07
   1.07931E+03   3.09000E+07   1.27000E+07
   1.07938E+03   3.17000E+07   1.28000E+07
   1.07944E+03   3.25000E+07   1.30000E+07
   1.07950E+03   3.34000E+07   1.32000E+07
   1.07957E+03   3.42000E+07   1.33000E+07
   1.07963E+03   3.51000E+07   1.35000E+07
   1.07969E+03   3.59000E+07   1.37000E+07
   1.07976E+03   3.68000E+07   1.38000E+07
   1.07982E+03   3.77000E+07   1.40000E+07
   1.07988E+03   3.86000E+07   1.42000E+07
   1.07995E+03   3.95000E+07   1.43000E+07
   1.08001E+03   4.04000E+07   1.45000E+07
   1.08007E+03   4.13000E+07   1.47000E+07
   1.08014E+03   4.23000E+07   1.48000E+07
   1.08020E+03   4.32000E+07   1.50000E+07
   1.08026E+03   4.42000E+07   1.52000E+07
   1.08033E+03   4.52000E+07   1.53000E+07
   1.08039E+03   4.61000E+07   1.55000E+07
   1.08045E+03   4.71000E+07   1.57000E+07
   1.08052E+03   4.81000E+07   1.58000E+07
   1.08058E+03   4.91000E+07   1.60000E+07
   1.08064E+03   5.02000E+07   1.62000E+07
   1.08071E+03   5.12000E+07   1.63000E+07
   1.08077E+03   5.22000E+07   1.65000E+07
   1.08083E+03   5.33000E+07   1.67000E+07
   1.08090E+03   5.44000E+07   1.68000E+07
   1.08096E+03   5.54000E+07   1.70000E+07
   1.08102E+03   5.65000E+07   1.72000E+07
   1.08109E+03   5.76000E+07   1.73000E+07
   1.08115E+03   5.87000E+07   1.75000E+07
   1.08121E+03   5.99000E+07   1.77000E+07
   1.08128E+03   6.10000E+07   1.78000E+07
   1.08134E+03   6.21000E+07   1.80000E+07
   1.08140E+03   6.33000E+07   1.82000E+07
   1.08147E+03   6.44000E+07   1.83000E+07
   1.08153E+03   6.56000E+07   1.85000E+07
   1.08159E+03   6.68000E+07   1.87000E+07
   1.08166E+03   6.80000E+07   1.88000E+07
   1.08172E+03   6.92000E+07   1.90000E+07
   1.08178E+03   7.04000E+07   1.92000E+07
   1.08185E+03   7.16000E+07   1.93000E+07
   1.08191E+03   7.29000E+07   1.95000E+07
   1.08197E+03   7.41000E+07   1.97000E+07
   1.08204E+03   7.54000E+07   1.98000E+07
   1.08210E+03   7.66000E+07   2.00000E+07
   1.08216E+03   7.79000E+07   2.02000E+07
   1.08223E+03   7.92000E+07   2.03000E+07
   1.08229E+03   8.05000E+07   2.05000E+07
   1.08235E+03   8.18000E+07   2.07000E+07
   1.08242E+03   8.31000E+07   2.08000E+07
   1.08248E+03   8.45000E+07   2.10000E+07
   1.08254E+03   8.58000E+07   2.12000E+07
   1.08261E+03   8.71000E+07   2.13000E+07
   1.08267E+03   8.85000E+07   2.15000E+07
   1.08273E+03   8.99000E+07   2.17000E+07
   1.08280E+03   9.13000E+07   2.18000E+07
   1.08286E+03   9.27000E+07   2.20000E+07
   1.08292E+03   9.41000E+07   2.22000E+07
   1.08299E+03   9.55000E+07   2.23000E+07
   1.08305E+03   9.69000E+07   2.25000E+07
   1.08311E+03   9.83000E+07   2.27000E+07
   1.08318E+03   9.98000E+07   2.28000E+07
   1.08324E+03   1.01000E+08   2.30000E+07
   1.08330E+03   1.03000E+08   2.32000E+07
   1.08337E+03   1.04000E+08   2.33000E+07
   1.08343E+03   1.06000E+08   2.35000E+07
   1.08349E+03   1.07000E+08   2.37000E+07
   1.08356E+03   1.09000E+08   2.38000E+07
   1.08362E+03   1.10000E+08   2.40000E+07
   1.08368E+03   1.12000E+08   2.42000E+07
   1.08375E+03   1.13000E+08   2.43000E+07
   1.08381E+03   1.15000E+08   2.45000E+07
   1.08387E+03   1.16000E+08   2.47000E+07
   1.08394E+03   1.18000E+08   2.48000E+07
   1.08400E+03   1.20000E+08   2.50000E+07



                      LAKE ID ARRAY FOR LAYER   1
 READING ON UNIT   33 WITH FORMAT: (20I4)              

                1           2           3           4           5           6           7           8           9          10
 ............................................................................................................................
   1            0           0           0           0           0           0           0           0           0           0
   2            0           0           0           0           0           0           0           0           0           0
   3            0           0           0           0           0           0           0           0           0           0
   4            0           0           0           0           1           0           0           0           0           0
   5            0           0           0           0           0           0           0           0           0           0
   6            0           0           0           0           0           0           0           0           0           0
   7            0           0           0           0           0           0           0           0           0           0
   8            0           0           0           0           0           0           0           0           0           0
   9            0           0           0           0           0           0           0           0           0           0
  10            0           0           0           0           0           0           0           0           0           0
  11            0           0           0           0           0           0           0           0           0           0
  12            0           0           0           0           0           0           0           0           0           0
  13            0           0           0           0           0           0           0           0           0           0
  14            0           0           0           0           0           0           0           0           0           0
  15            0           0           0           0           0           0           0           0           0           0



                      LAKE ID ARRAY FOR LAYER   2
 READING ON UNIT   33 WITH FORMAT: (20I4)              

                1           2           3           4           5           6           7           8           9          10
 ............................................................................................................................
   1            0           0           0           0           0           0           0           0           0           0
   2            0           0           0           0           0           0           0           0           0           0
   3            0           0           0           0           0           0           0           0           0           0
   4            0           0           0           0           0           0           0           0           0           0
   5            0           0           0           0           0           0           0           0           0           0
   6            0           0           0           0           0           0           0           0           0           0
   7            0           0           0           0           0           0           0           0           0           0
   8            0           0           0           0           0           0           0           0           0           0
   9            0           0           0           0           0           0           0           0           0           0
  10            0           0           0           0           0           0           0           0           0           0
  11            0           0           0           0           0           0           0           0           0           0
  12            0           0           0           0           0           0           0           0           0           0
  13            0           0           0           0           0           0           0           0           0           0
  14            0           0           0           0           0           0           0           0           0           0
  15            0           0           0           0           0           0           0           0           0           0





   LAKEBED LEAKANCE ARRAY =  5.000000E-02 FOR LAYER   1

   LAKEBED LEAKANCE ARRAY =  5.000000E-02 FOR LAYER   2

       LOCATIONS, LAKE #, INTERFACE TYPE FOR GRID CELLS ADJACENT TO LAKES:
     -----------------------------------------------------------------------
     LAYER #    ROW #    COLUMN #   LAKE #  INTERFACE TYPE  LAKEBED LEAKANCE
         1         4         4         1         2             5.000E-02
         1         3         5         1         3             5.000E-02
         2         4         5         1         6             5.000E-02
         1         5         5         1         4             5.000E-02
         1         4         6         1         1             5.000E-02

     NUMBER OF LAKE-AQUIFER CELL INTERFACES =     5

 NUMBER OF CONNECTED LAKE SYSTEMS IN SIMULATION IS   0

 LAKE       PRECIP     EVAP     RUNOFF   WITHDRAW   BOTTOM     AREA
----------------------------------------------------------------------
   1     0.000E+00 4.000E-08 0.000E+00  0.000E+00 1.074E+03 2.500E+07




         C               INTERFACE CONDUCTANCES BETWEEN LAKE AND AQUIFER CELLS
   L     O          (IF TYPE = 6, CONDUCTANCE (L^2/T) IS BETWEEN AQUIFER CELL AND OVERLYING LAKE CELL.)
   A     L  L  T    (IF TYPE = 1 TO 4, CONDUCTANCES ARE PER UNIT SATURATED THICKNESS (L/T).)
   Y  R  U  A  Y
   E  O  M  K  P                        LAKEBED      C O N D U C T A N C E S
   R  W  N  E  E     DELTA Y   DELTA X  LEAKANCE   LAKEBED   AQUIFER  COMBINED
 _______________________________________________________________________________
   1  4  4  1  2    5.00E+03  5.00E+03  5.00E-02  2.50E+02  6.00E-03  6.00E-03
   1  3  5  1  3    5.00E+03  5.00E+03  5.00E-02  2.50E+02  1.20E-03  1.20E-03
   2  4  5  1  6    5.00E+03  5.00E+03  5.00E-02  1.25E+06  9.42E+00  9.42E+00
   1  5  5  1  4    5.00E+03  5.00E+03  5.00E-02  2.50E+02  6.00E-03  6.00E-03
   1  4  6  1  1    5.00E+03  5.00E+03  5.00E-02  2.50E+02  6.00E-03  6.00E-03
 
      DEAD POOL STORAGE FOR LAKE    1 BELOW SEGMENT   10 IS EQUAL TO     0.1200000000E+09
 
      LAKE     INFLOWING STREAM SEGMENT
         1                  9

 MAXIMUM NUMBER OF STREAMS INFLOWING TO A LAKE IS    1

      LAKE     OUTFLOWING STREAM SEGMENT
         1                 10

 MAXIMUM NUMBER OF STREAMS OUTFLOWING FROM A LAKE IS    1

 
 SOLVING FOR HEAD 
                                                   Max.-Head-Change                         Max.-Flux-Residual
  Residual-Control   Outer-Iter.   Inner-Iter.     Column Row Layer    Maximum-Head-Change  Column Row Layer    Maximum-Flux-Residual          L2-NORM 
          0                 1           3            10   10     2      -0.1026992953E+02       3   13    2        -0.2143134765E+02      0.2863072368E+02
          0                 2           4             8    4     2      -0.4056888511E+01       4   13    2        -0.4174205095E+01      0.4696282065E+01
          0                 3           3             8    4     2       0.2386763800E+00       4   13    2        -0.1302822252E+01      0.1321730405E+01
          0                 4           2             4   13     2       0.1812505173E-01       4   13    2         0.1167367975E+00      0.1222747932E+00
          0                 5           1             1   13     2       0.9933438196E-03       4   13    2        -0.6103104014E-02      0.8416677481E-02

    ------------------------------------------------
       NWT REQUIRED            5 OUTER ITERATIONS 
       AND A TOTAL OF         13 INNER ITERATIONS.
    ------------------------------------------------

 OUTPUT CONTROL FOR STRESS PERIOD    1   TIME STEP    1
    PRINT BUDGET
    PRINT HEAD FOR ALL LAYERS
    SAVE HEAD FOR ALL LAYERS
    SAVE BUDGET

            WELLS   PERIOD    1   STEP   1
 WELL      1   LAYER   2   ROW     6   COL     4   RATE    -2.00000    
 WELL      2   LAYER   2   ROW     6   COL     5   RATE    -2.00000    
 WELL      3   LAYER   2   ROW     7   COL     4   RATE    -2.00000    
 WELL      4   LAYER   2   ROW     7   COL     5   RATE    -2.00000    
 WELL      5   LAYER   2   ROW     8   COL     4   RATE    -2.00000    
 WELL      6   LAYER   2   ROW     8   COL     5   RATE    -2.00000    
 WELL      7   LAYER   2   ROW     9   COL     4   RATE    -2.00000    
 WELL      8   LAYER   2   ROW     9   COL     5   RATE    -2.00000    
 WELL      9   LAYER   2   ROW    10   COL     4   RATE    -2.00000    
 WELL     10   LAYER   2   ROW    10   COL     5   RATE    -2.00000    

  HEAD DEP BOUNDS   PERIOD    1   STEP     1
 BOUNDARY      1   LAYER   2   ROW    13   COL     1   RATE   -0.286583    
 BOUNDARY      2   LAYER   2   ROW    14   COL     9   RATE    0.215996    



 STREAM LISTING     PERIOD      1   STEP        1

 LAYER ROW COL. STREAM  RCH.  FLOW INTO     FLOW TO   FLOW OUT OF   OVRLND.     DIRECT     STREAM       STREAM     STREAM     STREAM   STREAMBED  STREAMBED
                SEG.NO.  NO.  STRM. RCH.    AQUIFER    STRM. RCH.    RUNOFF     PRECIP       ET          HEAD       DEPTH      WIDTH   CONDCTNC.   GRADIENT

   2    1    1     1     1    2.8209E+01  2.0699E+00   2.6139E+01  0.000E+00  0.000E+00  0.000E+00  1.09426E+03  1.212E+00  1.348E+01  6.067E-01  1.137E+00
   2    2    2     1     2    2.6139E+01  3.7684E+00   2.2371E+01  0.000E+00  0.000E+00  0.000E+00  1.08923E+03  1.169E+00  1.291E+01  9.039E-01  1.390E+00
   2    3    3     1     3    2.2371E+01  3.0108E+00   1.9360E+01  0.000E+00  0.000E+00  0.000E+00  1.08353E+03  1.115E+00  1.219E+01  7.317E-01  1.372E+00
   2    3    4     1     4    1.9360E+01  2.5762E+00   1.6784E+01  0.000E+00  0.000E+00  0.000E+00  1.07848E+03  1.068E+00  1.141E+01  6.332E-01  1.356E+00
   2    4    5     2     1    6.7841E+00  2.7166E+00   4.0674E+00  0.000E+00  0.000E+00  0.000E+00  1.07242E+03  4.829E-01  1.200E+01  7.800E-01  1.161E+00
   2    5    6     2     2    4.0674E+00  2.0056E+00   2.0618E+00  0.000E+00  0.000E+00  0.000E+00  1.06685E+03  3.427E-01  1.200E+01  6.000E-01  1.114E+00
   2    6    6     2     3    2.0618E+00  1.9116E+00   1.5021E-01  0.000E+00  0.000E+00  0.000E+00  1.06198E+03  1.859E-01  1.200E+01  6.000E-01  1.062E+00
   2    7    6     2     4    1.5021E-01  1.5021E-01   0.0000E+00  0.000E+00  0.000E+00  0.000E+00  1.05709E+03  1.263E-02  1.200E+01  6.000E-01  1.004E+00
   2    8    6     2     5    0.0000E+00  0.0000E+00   0.0000E+00  0.000E+00  0.000E+00  0.000E+00  1.05236E+03  0.000E+00  1.200E+01  6.000E-01  1.000E+00
   2    3    5     3     1    1.0000E+01  2.8252E+00   7.1748E+00  0.000E+00  0.000E+00  0.000E+00  1.07555E+03  1.909E+00  9.636E+00  7.227E-01  1.955E+00
   2    3    6     3     2    7.1748E+00  2.4905E+00   4.6843E+00  0.000E+00  0.000E+00  0.000E+00  1.07264E+03  1.727E+00  8.909E+00  6.682E-01  1.864E+00
   2    3    7     3     3    4.6843E+00  1.9718E+00   2.7125E+00  0.000E+00  0.000E+00  0.000E+00  1.06987E+03  1.555E+00  8.218E+00  5.547E-01  1.777E+00
   2    4    8     3     4    2.7125E+00  2.2567E+00   4.5579E-01  0.000E+00  0.000E+00  0.000E+00  1.06682E+03  1.364E+00  7.455E+00  6.709E-01  1.682E+00
   2    5    8     3     5    4.5579E-01  4.5579E-01   0.0000E+00  0.000E+00  0.000E+00  0.000E+00  1.06362E+03  0.000E+00  6.655E+00  4.991E-01  1.582E+00
   2    6    8     3     6    0.0000E+00  0.0000E+00   0.0000E+00  0.000E+00  0.000E+00  0.000E+00  1.06055E+03  0.000E+00  6.145E+00  1.844E-01  1.000E+00
   2    5   10     4     1    1.0000E+01  9.0525E-01   9.0947E+00  0.000E+00  0.000E+00  0.000E+00  1.07835E+03  6.210E-01  1.000E+01  2.500E-01  1.207E+00
   2    5    9     4     2    9.0947E+00  1.7835E+00   7.3113E+00  0.000E+00  0.000E+00  0.000E+00  1.07148E+03  5.670E-01  1.000E+01  5.000E-01  1.189E+00
   2    6    8     4     3    7.3113E+00  1.2257E+00   6.0855E+00  0.000E+00  0.000E+00  0.000E+00  1.06368E+03  5.021E-01  1.000E+01  3.500E-01  1.167E+00
   2    6    8     5     1    6.0855E+00  1.4716E+00   4.6139E+00  0.000E+00  0.000E+00  0.000E+00  1.05854E+03  5.396E-01  1.039E+01  4.158E-01  1.180E+00
   2    7    7     5     2    4.6139E+00  1.4897E+00   3.1242E+00  0.000E+00  0.000E+00  0.000E+00  1.05398E+03  4.817E-01  8.557E+00  4.279E-01  1.161E+00
   2    8    7     5     3    3.1242E+00  8.2855E-01   2.2957E+00  0.000E+00  0.000E+00  0.000E+00  1.04968E+03  4.253E-01  6.911E+00  2.419E-01  1.142E+00
   2    8    6     5     4    2.2957E+00  4.9455E-01   1.8011E+00  0.000E+00  0.000E+00  0.000E+00  1.04664E+03  3.856E-01  5.843E+00  1.461E-01  1.129E+00
   2    9    6     6     1    1.8011E+00  1.8011E+00   0.0000E+00  0.000E+00  0.000E+00  0.000E+00  1.04278E+03  5.669E-02  1.200E+01  6.000E-01  1.019E+00
   2   10    7     6     2    0.0000E+00  0.0000E+00   0.0000E+00  0.000E+00  0.000E+00  0.000E+00  1.03818E+03  0.000E+00  1.200E+01  6.000E-01  1.000E+00
   2   11    7     6     3    0.0000E+00  0.0000E+00   0.0000E+00  0.000E+00  0.000E+00  0.000E+00  1.03364E+03  0.000E+00  1.200E+01  6.000E-01  1.000E+00
   2   12    7     6     4    0.0000E+00  0.0000E+00   0.0000E+00  0.000E+00  0.000E+00  0.000E+00  1.02909E+03  0.000E+00  1.200E+01  6.000E-01  5.998E-01
   2   13    7     6     5    0.0000E+00 -7.2162E-01   7.2162E-01  0.000E+00  0.000E+00  0.000E+00  1.02601E+03  9.601E-02  1.200E+01  2.400E-01 -1.002E+00
   2   14    9     7     1    1.5000E+02  3.0633E+00   1.4694E+02  0.000E+00  0.000E+00  0.000E+00  1.03986E+03  2.283E+00  5.527E+01  5.591E+00  1.826E-01
   2   13    8     7     2    1.4694E+02  4.2102E+00   1.4273E+02  0.000E+00  0.000E+00  0.000E+00  1.03476E+03  2.264E+00  5.519E+01  6.139E+00  2.286E-01
   2   13    7     7     3    1.4273E+02  3.6212E+00   1.3911E+02  0.000E+00  0.000E+00  0.000E+00  1.02966E+03  2.243E+00  5.509E+01  5.571E+00  2.167E-01
   2   13    6     8     1    1.3983E+02  1.7240E+00   1.3810E+02  0.000E+00  0.000E+00  0.000E+00  1.02461E+03  2.737E+00  3.969E+01  4.045E+00  1.421E-01
   2   13    5     8     2    1.3810E+02 -1.4658E+00   1.3957E+02  0.000E+00  0.000E+00  0.000E+00  1.01836E+03  2.736E+00  3.968E+01  4.043E+00 -1.208E-01
   2   13    4     8     3    1.3957E+02 -4.5010E+00   1.4407E+02  0.000E+00  0.000E+00  0.000E+00  1.01213E+03  2.758E+00  3.999E+01  4.076E+00 -3.681E-01
   2   13    3     8     4    1.4407E+02 -5.2628E+00   1.4933E+02  0.000E+00  0.000E+00  0.000E+00  1.00592E+03  2.793E+00  4.051E+01  4.128E+00 -4.250E-01
   2   13    2     8     5    1.4933E+02 -3.2311E+00   1.5256E+02  0.000E+00  0.000E+00  0.000E+00  9.99698E+02  2.824E+00  4.094E+01  4.172E+00 -2.582E-01
   2   13    1     8     6    1.5256E+02 -2.0778E+00   1.5464E+02  0.000E+00  0.000E+00  0.000E+00  9.94717E+02  2.842E+00  4.121E+01  2.520E+00 -2.749E-01
   2    4    5     9     1    0.0000E+00  0.0000E+00   0.0000E+00  0.000E+00  0.000E+00  0.000E+00  1.06000E+03  0.000E+00  2.000E+01  2.000E-03  1.000E+00
   2    4    5    10     1    0.0000E+00  0.0000E+00   0.0000E+00  0.000E+00  0.000E+00  0.000E+00  1.08000E+03  0.000E+00  2.000E+01  2.000E-03  1.000E+00



 ..........LAKE  1 IS DRY..........

     SECTIONS OF THE LAKE BOTTOM HAVE BECOME DRY.  THE DRYSECTIONS
     LIE ABOVE THE FOLLOWING  1 AQUIFER CELLS (LAYER,ROW,COLUMN):
     (  2,  4,  5)  (

 PERIOD     1     TIME STEP     1     TIME STEP LENGTH  2.6280E+06
 PERIOD TIME  2.6280E+06     TOTAL SIMULATION TIME  2.6280E+06


                 HYDROLOGIC BUDGET SUMMARIES FOR SIMULATED LAKES
     (ALL FLUID FLUXES ARE VOLUMES ADDED TO THE LAKE DURING PRESENT TIME STEP)
     ----------------------------------------------------------------------------------------
 LAKE    STAGE         VOLUME     VOL. CHANGE      PRECIP     EVAPORATION    SPECIFIED RUNOFF     COMPUTED RUNOFF    TOTAL RUNOFF
   1  1.074500E+03  0.000000E+00     N/A (SS)   0.000000E+00  0.000000E+00   0.000000E+00          0.000000E+00      0.000000E+00

            GROUND WATER            SURFACE WATER        WATER          UZF INFIL.
 LAKE    INFLOW     OUTFLOW      INFLOW     OUTFLOW       USE        FROM LAKE
   1  0.0000E+00  0.0000E+00  0.0000E+00  0.0000E+00  0.0000E+00       0.0000E+00

      CONNECTED LAKE   TIME-STEP         STAGE-CHANGE          PERCENT
 LAKE    INFLUX      SURFACE AREA   TIME STEP  CUMULATIVE    DISCREPANCY
   1   0.0000E+00     0.0000E+00     N/A (SS)   N/A (SS)        0.000
 --------------------------------------------------------------------------------



            CUMULATIVE HYDROLOGIC BUDGET SUMMARIES FOR SIMULATED LAKES
     (ALL FLUID FLUXES ARE SUMS OF VOLUMES ADDED TO THE LAKE SINCE INITIAL TIME)
     ---------------------------------------------------------------------------
 LAKE       PRECIP       EVAP     SPECIFIED RUNOFF   COMPUTED RUNOFF   TOTAL RUNOFF
   1     0.0000E+00  0.0000E+00       0.0000E+00       0.0000E+00       0.0000E+00

            GROUND WATER            SURFACE WATER       UZF INFIL.
 LAKE    INFLOW     OUTFLOW      INFLOW     OUTFLOW     FROM LAKE
   1  0.0000E+00  0.0000E+00  0.0000E+00  0.0000E+00    0.0000E+00

         WATER    CONNECTED LAKE   CHANGE       PERCENT
 LAKE     USE         INFLUX       IN VOL.    DISCREPANCY
   1   0.0000E+00   0.0000E+00    N/A (SS)       0.000
 --------------------------------------------------------------------------------

 UBDSV3 SAVING "           GW ET" ON UNIT  61 AT TIME STEP 1, STRESS PERIOD 1
 UBDSV3 SAVING "    UZF RECHARGE" ON UNIT  61 AT TIME STEP 1, STRESS PERIOD 1
 UBDSV3 SAVING " SURFACE LEAKAGE" ON UNIT  61 AT TIME STEP 1, STRESS PERIOD 1


UNSATURATED ZONE PACKAGE VOLUMETRIC BUDGET FOR  TIME STEP     1 STRESS PERIOD    1
  ------------------------------------------------------------------------------



     CUMULATIVE VOLUMES      L**3       RATES FOR THIS TIME STEP      L**3/T
     ------------------                 ------------------------

           IN:                                      IN:
           ---                                      ---
        INFILTRATION =     2220660.0000          INFILTRATION =           0.8450

          OUT:                                     OUT:
          ----                                     ----
              UZF ET =       0.0000E+00                UZF ET =       0.0000E+00
        UZF RECHARGE =     2220660.0000          UZF RECHARGE =           0.8450

            IN - OUT =       0.0000E+00              IN - OUT =       0.0000E+00

          STORAGE:                                 STORAGE:
          --------                                 --------
      STORAGE CHANGE =       0.0000E+00        STORAGE CHANGE =       0.0000E+00

 PERCENT DISCREPANCY IS DIFFERENCE BETWEEN IN-OUT MINUS CHANGE IN STORAGE
 DIVIDED BY THE AVERAGE OF IN AND OUT TIMES 100

 PERCENT DISCREPANCY =           0.00     PERCENT DISCREPANCY =           0.00






1
              HEAD IN LAYER 1 AT END OF TIME STEP 1 IN STRESS PERIOD 1
  ---------------------------------------------------------------------------

           1       2       3       4       5       6       7       8       9      10
 ...................................................................................
   1  6999.00 6999.00 6999.00 6999.00 6999.00 6999.00 6999.00 6999.00 6999.00 6999.00
   2  6999.00 6999.00 6999.00 6999.00 6999.00 6999.00 6999.00 6999.00 6999.00 6999.00
   3  6999.00 6999.00 6999.00 6999.00 6999.00 6999.00 6999.00 6999.00 6999.00 6999.00
   4  6999.00 6999.00 6999.00 6999.00 6999.00 6999.00 6999.00 6999.00 6999.00 6999.00
   5  6999.00 6999.00 6999.00 6999.00 6999.00 6999.00 6999.00 6999.00 6999.00 6999.00
   6  6999.00 6999.00 6999.00 6999.00 6999.00 6999.00 6999.00 6999.00 6999.00 6999.00
   7  6999.00 6999.00 6999.00 6999.00 6999.00 6999.00 6999.00 6999.00 6999.00 6999.00
   8  6999.00 6999.00 6999.00 6999.00 6999.00 6999.00 6999.00 6999.00 6999.00 6999.00
   9  6999.00 6999.00 6999.00 6999.00 6999.00 6999.00 6999.00 6999.00 6999.00 6999.00
  10  6999.00 6999.00 6999.00 6999.00 6999.00 6999.00 6999.00 6999.00 6999.00 6999.00
  11  6999.00 6999.00 6999.00 6999.00 6999.00 6999.00 6999.00 6999.00 6999.00 6999.00
  12  6999.00 6999.00 6999.00 6999.00 6999.00 6999.00 6999.00 6999.00 6999.00 6999.00
  13  6999.00 6999.00 6999.00 6999.00 6999.00 6999.00 6999.00 6999.00 6999.00 6999.00
  14  6999.00 6999.00 6999.00 6999.00 6999.00 6999.00 6999.00 6999.00 6999.00 6999.00
  15  6999.00 6999.00 6999.00 6999.00 6999.00 6999.00 6999.00 6999.00 6999.00 6999.00
1
              HEAD IN LAYER 2 AT END OF TIME STEP 1 IN STRESS PERIOD 1
  ---------------------------------------------------------------------------

           1       2       3       4       5       6       7       8       9      10
 ...................................................................................
   1  1090.85 1085.45 6999.00 6999.00 6999.00 6999.00 6999.00 6999.00 6999.00 6999.00
   2  1085.47 1079.69 1072.73 6999.00 6999.00 1062.10 1062.09 1061.65 6999.00 6999.00
   3  6999.00 1068.70 1065.48 1061.61 1061.68 1061.81 1062.15 1061.02 6999.00 6999.00
   4  1056.45 1058.93 1058.21 1055.32 1054.23 1053.39 1054.55 1058.56 1056.87 6999.00
   5  1052.24 1051.81 1050.88 1049.52 1049.40 1049.95 1049.89 1051.54 1054.85 1057.10
   6  1048.08 1046.52 1045.10 1044.01 1044.38 1046.20 1047.24 1049.30 1051.49 1055.37
   7  1045.05 1041.68 1040.09 1039.20 1039.89 1041.89 1043.90 1046.09 1047.78 6999.00
   8  6999.00 1036.56 1035.48 1034.81 1035.59 1037.64 1039.47 1042.37 1042.87 6999.00
   9  6999.00 1030.91 1030.58 1030.38 1031.37 1033.60 1034.78 1036.45 1037.97 6999.00
  10  6999.00 1025.28 1025.70 1026.33 1027.63 1029.73 1030.90 1032.35 1034.09 1034.49
  11  6999.00 1018.56 1019.84 1022.69 1024.70 1026.92 1028.53 1030.46 1032.88 6999.00
  12  1002.51 1009.13 1013.43 1017.84 1021.38 1024.78 1027.29 1030.33 1033.90 6999.00
  13   995.54 1000.47 1007.19 1013.24 1018.72 1024.19 1029.01 1034.08 1036.57 6999.00
  14  6999.00 1005.98 1009.16 1013.94 1018.97 1023.99 1029.35 1034.97 1039.32 6999.00
  15  6999.00 6999.00 1012.68 1015.55 1019.30 1022.74 6999.00 6999.00 6999.00 6999.00

 HEAD WILL BE SAVED ON UNIT   58 AT END OF TIME STEP    1, STRESS PERIOD    1
1
  VOLUMETRIC BUDGET FOR ENTIRE MODEL AT END OF TIME STEP    1, STRESS PERIOD   1
  ------------------------------------------------------------------------------

     CUMULATIVE VOLUMES      L**3       RATES FOR THIS TIME STEP      L**3/T
     ------------------                 ------------------------

           IN:                                      IN:
           ---                                      ---
             STORAGE     =           0.0000               STORAGE     =           0.0000
       CONSTANT HEAD     =           0.0000         CONSTANT HEAD     =           0.0000
               WELLS     =           0.0000                 WELLS     =           0.0000
     HEAD DEP BOUNDS     =      567638.0625       HEAD DEP BOUNDS     =           0.2160
      STREAM LEAKAGE     =   133575952.0000        STREAM LEAKAGE     =          50.8280
       LAKE  SEEPAGE     =           0.0000         LAKE  SEEPAGE     =           0.0000
        UZF RECHARGE     =     2220658.7500          UZF RECHARGE     =           0.8450
               GW ET     =           0.0000                 GW ET     =           0.0000
     SURFACE LEAKAGE     =           0.0000       SURFACE LEAKAGE     =           0.0000

                TOTAL IN =   136364256.0000                  TOTAL IN =          51.8890

          OUT:                                     OUT:
          ----                                     ----
             STORAGE     =           0.0000               STORAGE     =           0.0000
       CONSTANT HEAD     =           0.0000         CONSTANT HEAD     =           0.0000
               WELLS     =    52560000.0000                 WELLS     =          20.0000
     HEAD DEP BOUNDS     =      753140.6875       HEAD DEP BOUNDS     =           0.2866
      STREAM LEAKAGE     =    45359796.0000        STREAM LEAKAGE     =          17.2602
       LAKE  SEEPAGE     =           0.0000         LAKE  SEEPAGE     =           0.0000
        UZF RECHARGE     =           0.0000          UZF RECHARGE     =           0.0000
               GW ET     =    37692156.0000                 GW ET     =          14.3425
     SURFACE LEAKAGE     =           0.0000       SURFACE LEAKAGE     =           0.0000

               TOTAL OUT =   136365088.0000                 TOTAL OUT =          51.8893

                IN - OUT =        -832.0000                  IN - OUT =      -3.2043E-04

     PERCENT DISCREPANCY =          -0.00         PERCENT DISCREPANCY =          -0.00






         TIME SUMMARY AT END OF TIME STEP    1 IN STRESS PERIOD    1
                    SECONDS     MINUTES      HOURS       DAYS        YEARS
                    -----------------------------------------------------------
   TIME STEP LENGTH 2.62800E+06  43800.      730.00      30.417     8.32763E-02
 STRESS PERIOD TIME 2.62800E+06  43800.      730.00      30.417     8.32763E-02
         TOTAL TIME 2.62800E+06  43800.      730.00      30.417     8.32763E-02
1
1
                            STRESS PERIOD NO.    2, LENGTH =   2628000.    
                            -----------------------------------------------

                              NUMBER OF TIME STEPS =    15

                               MULTIPLIER FOR DELT =     1.000

                            INITIAL TIME STEP SIZE =   175200.0    

 WELL NO.  LAYER   ROW   COL   STRESS RATE         
 --------------------------------------------------
      1      2      6      4      -2.000    
      2      2      6      5      -2.000    
      3      2      7      4      -2.000    
      4      2      7      5      -2.000    
      5      2      8      4      -2.000    
      6      2      8      5      -2.000    
      7      2      9      4      -2.000    
      8      2      9      5      -2.000    
      9      2     10      4      -2.000    
     10      2     10      5      -2.000    

     10 WELLS

 REUSING NON-PARAMETER GHB CELLS FROM LAST STRESS PERIOD

      2 GHB CELLS

 REUSING STREAM SEGMENT DATA FROM LAST STRESS PERIOD



            AREAL INFILTRATION RATE
 READING ON UNIT   19 WITH FORMAT: (10F4.0)            

            1           2           3           4           5           6           7           8           9          10
 ........................................................................................................................
   1   8.0000E-09  1.6000E-08   0.000       0.000       0.000       0.000       0.000       0.000       0.000       0.000    
   2   1.6000E-08  8.0000E-09  1.6000E-08   0.000       0.000      6.4000E-08  6.4000E-08  4.0000E-08   0.000       0.000    
   3    0.000      4.0000E-08  8.0000E-09  8.0000E-09  6.4000E-08  6.4000E-08  4.0000E-08  4.0000E-08   0.000       0.000    
   4   6.4000E-08  4.0000E-08  8.0000E-09  8.0000E-09  8.0000E-09  8.0000E-09  8.0000E-09  8.0000E-09  1.6000E-08   0.000    
   5   6.4000E-08  4.0000E-08  8.0000E-09  8.0000E-09  8.0000E-09  8.0000E-09  8.0000E-09  8.0000E-09  8.0000E-09  8.0000E-09
   6   6.4000E-08  4.0000E-08  4.0000E-08  1.6000E-08  1.6000E-08  8.0000E-09  8.0000E-09  8.0000E-09  8.0000E-09  4.0000E-08
   7   6.4000E-08  4.0000E-08  4.0000E-08  1.6000E-08  1.6000E-08  8.0000E-09  8.0000E-09  1.6000E-08  1.6000E-08   0.000    
   8    0.000      4.0000E-08  4.0000E-08  1.6000E-08  1.6000E-08  8.0000E-09  8.0000E-09  1.6000E-08  4.0000E-08   0.000    
   9    0.000      4.0000E-08  4.0000E-08  1.6000E-08  1.6000E-08  8.0000E-09  8.0000E-09  1.6000E-08  4.0000E-08   0.000    
  10    0.000      4.0000E-08  4.0000E-08  1.6000E-08  1.6000E-08  8.0000E-09  8.0000E-09  1.6000E-08  4.0000E-08  6.4000E-08
  11    0.000      8.0000E-09  8.0000E-09  8.0000E-09  8.0000E-09  8.0000E-09  8.0000E-09  1.6000E-08  4.0000E-08   0.000    
  12   8.0000E-09  8.0000E-09  8.0000E-09  8.0000E-09  8.0000E-09  8.0000E-09  8.0000E-09  8.0000E-09  1.6000E-08   0.000    
  13   8.0000E-09  8.0000E-09  1.6000E-08  1.6000E-08  1.6000E-08  1.6000E-08  1.6000E-08  8.0000E-09  8.0000E-09   0.000    
  14    0.000      1.6000E-08  4.0000E-08  4.0000E-08  4.0000E-08  4.0000E-08  4.0000E-08  1.6000E-08  8.0000E-09   0.000    
  15    0.000       0.000      6.4000E-08  6.4000E-08  6.4000E-08  6.4000E-08   0.000       0.000       0.000       0.000    

                  ET RATE =  5.000000E-08

 USING ET EXTINCTION DEPTH FROM PREVIOUS STRESS PERIOD. CURRENT PERIOD IS:       2

 USING EXTINCTION WATER CONTENT FROM PREVIOUS STRESS PERIOD. CURRENT PERIOD IS:       2




 If any subsequent steady-state stress periods, min. and max. stages for each lake will be read in Record 9a.




 REUSING LAKE CONFIGURATION DATA FROM LAST STRESS PERIOD


 LAKE       PRECIP     EVAP     RUNOFF   WITHDRAW   BOTTOM     AREA
----------------------------------------------------------------------
   1     0.000E+00 4.000E-08 0.000E+00  0.000E+00 1.074E+03 2.500E+07




         C               INTERFACE CONDUCTANCES BETWEEN LAKE AND AQUIFER CELLS
   L     O          (IF TYPE = 6, CONDUCTANCE (L^2/T) IS BETWEEN AQUIFER CELL AND OVERLYING LAKE CELL.)
   A     L  L  T    (IF TYPE = 1 TO 4, CONDUCTANCES ARE PER UNIT SATURATED THICKNESS (L/T).)
   Y  R  U  A  Y
   E  O  M  K  P                        LAKEBED      C O N D U C T A N C E S
   R  W  N  E  E     DELTA Y   DELTA X  LEAKANCE   LAKEBED   AQUIFER  COMBINED
 _______________________________________________________________________________
   1  4  4  1  2    5.00E+03  5.00E+03  5.00E-02  2.50E+02  6.00E-03  6.00E-03
   1  3  5  1  3    5.00E+03  5.00E+03  5.00E-02  2.50E+02  1.20E-03  1.20E-03
   2  4  5  1  6    5.00E+03  5.00E+03  5.00E-02  1.25E+06  9.42E+00  9.42E+00
   1  5  5  1  4    5.00E+03  5.00E+03  5.00E-02  2.50E+02  6.00E-03  6.00E-03
   1  4  6  1  1    5.00E+03  5.00E+03  5.00E-02  2.50E+02  6.00E-03  6.00E-03
 
      DEAD POOL STORAGE FOR LAKE    1 BELOW SEGMENT   10 IS EQUAL TO     0.1200000000E+09
 
      LAKE     INFLOWING STREAM SEGMENT
         1                  9

 MAXIMUM NUMBER OF STREAMS INFLOWING TO A LAKE IS    1

      LAKE     OUTFLOWING STREAM SEGMENT
         1                 10

 MAXIMUM NUMBER OF STREAMS OUTFLOWING FROM A LAKE IS    1

 
 SOLVING FOR HEAD 
                                                   Max.-Head-Change                         Max.-Flux-Residual
  Residual-Control   Outer-Iter.   Inner-Iter.     Column Row Layer    Maximum-Head-Change  Column Row Layer    Maximum-Flux-Residual          L2-NORM 
          0                 1           2             8   12     2       0.6663137200E-01       6    5    2        -0.1952241475E+01      0.5743128661E+01
          0                 2           2             6    5     2       0.4497891805E-02       6    5    2         0.1372818729E+00      0.2033201266E+00
          0                 3           1             6    5     2      -0.2599361143E-03       6    5    2        -0.8238240751E-02      0.1139926936E-01

    ------------------------------------------------
       NWT REQUIRED            3 OUTER ITERATIONS 
       AND A TOTAL OF          5 INNER ITERATIONS.
    ------------------------------------------------

 OUTPUT CONTROL FOR STRESS PERIOD    2   TIME STEP    1
    PRINT BUDGET
    SAVE BUDGET

            WELLS   PERIOD    2   STEP   1
 WELL      1   LAYER   2   ROW     6   COL     4   RATE    -2.00000    
 WELL      2   LAYER   2   ROW     6   COL     5   RATE    -2.00000    
 WELL      3   LAYER   2   ROW     7   COL     4   RATE    -2.00000    
 WELL      4   LAYER   2   ROW     7   COL     5   RATE    -2.00000    
 WELL      5   LAYER   2   ROW     8   COL     4   RATE    -2.00000    
 WELL      6   LAYER   2   ROW     8   COL     5   RATE    -2.00000    
 WELL      7   LAYER   2   ROW     9   COL     4   RATE    -2.00000    
 WELL      8   LAYER   2   ROW     9   COL     5   RATE    -2.00000    
 WELL      9   LAYER   2   ROW    10   COL     4   RATE    -2.00000    
 WELL     10   LAYER   2   ROW    10   COL     5   RATE    -2.00000    

  HEAD DEP BOUNDS   PERIOD    2   STEP     1
 BOUNDARY      1   LAYER   2   ROW    13   COL     1   RATE   -0.286756    
 BOUNDARY      2   LAYER   2   ROW    14   COL     9   RATE    0.215638    



 STREAM LISTING     PERIOD      2   STEP        1

 LAYER ROW COL. STREAM  RCH.  FLOW INTO     FLOW TO   FLOW OUT OF   OVRLND.     DIRECT     STREAM       STREAM     STREAM     STREAM   STREAMBED  STREAMBED
                SEG.NO.  NO.  STRM. RCH.    AQUIFER    STRM. RCH.    RUNOFF     PRECIP       ET          HEAD       DEPTH      WIDTH   CONDCTNC.   GRADIENT

   2    1    1     1     1    2.2000E+01  1.8299E+00   2.0170E+01  0.000E+00  0.000E+00  0.000E+00  1.09417E+03  1.118E+00  1.224E+01  5.510E-01  1.107E+00
   2    2    2     1     2    2.0170E+01  3.2954E+00   1.6875E+01  0.000E+00  0.000E+00  0.000E+00  1.08913E+03  1.076E+00  1.155E+01  8.085E-01  1.359E+00
   2    3    3     1     3    1.6875E+01  2.5597E+00   1.4315E+01  0.000E+00  0.000E+00  0.000E+00  1.08344E+03  1.024E+00  1.060E+01  6.362E-01  1.341E+00
   2    3    4     1     4    1.4315E+01  2.1565E+00   1.2158E+01  0.000E+00  0.000E+00  0.000E+00  1.07838E+03  9.761E-01  9.772E+00  5.424E-01  1.325E+00
   2    4    5     2     1    2.1585E+00  2.1585E+00   0.0000E+00  0.000E+00  0.000E+00  0.000E+00  1.07200E+03  6.249E-02  1.200E+01  7.800E-01  1.021E+00
   2    5    6     2     2    0.0000E+00  0.0000E+00   0.0000E+00  0.000E+00  0.000E+00  0.000E+00  1.06651E+03  0.000E+00  1.200E+01  6.000E-01  1.000E+00
   2    6    6     2     3    0.0000E+00  0.0000E+00   0.0000E+00  0.000E+00  0.000E+00  0.000E+00  1.06179E+03  0.000E+00  1.200E+01  6.000E-01  1.000E+00
   2    7    6     2     4    0.0000E+00  0.0000E+00   0.0000E+00  0.000E+00  0.000E+00  0.000E+00  1.05708E+03  0.000E+00  1.200E+01  6.000E-01  1.000E+00
   2    8    6     2     5    0.0000E+00  0.0000E+00   0.0000E+00  0.000E+00  0.000E+00  0.000E+00  1.05236E+03  0.000E+00  1.200E+01  6.000E-01  1.000E+00
   2    3    5     3     1    1.0000E+01  2.8252E+00   7.1748E+00  0.000E+00  0.000E+00  0.000E+00  1.07555E+03  1.909E+00  9.636E+00  7.227E-01  1.955E+00
   2    3    6     3     2    7.1748E+00  2.4905E+00   4.6843E+00  0.000E+00  0.000E+00  0.000E+00  1.07264E+03  1.727E+00  8.909E+00  6.682E-01  1.864E+00
   2    3    7     3     3    4.6843E+00  1.9718E+00   2.7125E+00  0.000E+00  0.000E+00  0.000E+00  1.06987E+03  1.555E+00  8.218E+00  5.547E-01  1.777E+00
   2    4    8     3     4    2.7125E+00  2.2567E+00   4.5579E-01  0.000E+00  0.000E+00  0.000E+00  1.06682E+03  1.364E+00  7.455E+00  6.709E-01  1.682E+00
   2    5    8     3     5    4.5579E-01  4.5579E-01   0.0000E+00  0.000E+00  0.000E+00  0.000E+00  1.06362E+03  0.000E+00  6.655E+00  4.991E-01  1.582E+00
   2    6    8     3     6    0.0000E+00  0.0000E+00   0.0000E+00  0.000E+00  0.000E+00  0.000E+00  1.06055E+03  0.000E+00  6.145E+00  1.844E-01  1.000E+00
   2    5   10     4     1    1.0000E+01  9.0525E-01   9.0947E+00  0.000E+00  0.000E+00  0.000E+00  1.07835E+03  6.210E-01  1.000E+01  2.500E-01  1.207E+00
   2    5    9     4     2    9.0947E+00  1.7835E+00   7.3113E+00  0.000E+00  0.000E+00  0.000E+00  1.07148E+03  5.670E-01  1.000E+01  5.000E-01  1.189E+00
   2    6    8     4     3    7.3113E+00  1.2257E+00   6.0855E+00  0.000E+00  0.000E+00  0.000E+00  1.06368E+03  5.021E-01  1.000E+01  3.500E-01  1.167E+00
   2    6    8     5     1    6.0855E+00  1.4716E+00   4.6139E+00  0.000E+00  0.000E+00  0.000E+00  1.05854E+03  5.396E-01  1.039E+01  4.158E-01  1.180E+00
   2    7    7     5     2    4.6139E+00  1.4897E+00   3.1242E+00  0.000E+00  0.000E+00  0.000E+00  1.05398E+03  4.817E-01  8.557E+00  4.279E-01  1.161E+00
   2    8    7     5     3    3.1242E+00  8.2855E-01   2.2957E+00  0.000E+00  0.000E+00  0.000E+00  1.04968E+03  4.253E-01  6.911E+00  2.419E-01  1.142E+00
   2    8    6     5     4    2.2957E+00  4.9455E-01   1.8011E+00  0.000E+00  0.000E+00  0.000E+00  1.04664E+03  3.856E-01  5.843E+00  1.461E-01  1.129E+00
   2    9    6     6     1    1.8011E+00  1.8011E+00   0.0000E+00  0.000E+00  0.000E+00  0.000E+00  1.04278E+03  5.669E-02  1.200E+01  6.000E-01  1.019E+00
   2   10    7     6     2    0.0000E+00  0.0000E+00   0.0000E+00  0.000E+00  0.000E+00  0.000E+00  1.03818E+03  0.000E+00  1.200E+01  6.000E-01  1.000E+00
   2   11    7     6     3    0.0000E+00  0.0000E+00   0.0000E+00  0.000E+00  0.000E+00  0.000E+00  1.03364E+03  0.000E+00  1.200E+01  6.000E-01  1.000E+00
   2   12    7     6     4    0.0000E+00  0.0000E+00   0.0000E+00  0.000E+00  0.000E+00  0.000E+00  1.02909E+03  0.000E+00  1.200E+01  6.000E-01  5.960E-01
   2   13    7     6     5    0.0000E+00 -7.2331E-01   7.2331E-01  0.000E+00  0.000E+00  0.000E+00  1.02601E+03  9.615E-02  1.200E+01  2.400E-01 -1.005E+00
   2   14    9     7     1    1.5000E+02  3.0115E+00   1.4699E+02  0.000E+00  0.000E+00  0.000E+00  1.03986E+03  2.283E+00  5.527E+01  5.591E+00  1.795E-01
   2   13    8     7     2    1.4699E+02  4.1590E+00   1.4283E+02  0.000E+00  0.000E+00  0.000E+00  1.03476E+03  2.264E+00  5.519E+01  6.140E+00  2.258E-01
   2   13    7     7     3    1.4283E+02  3.5851E+00   1.3924E+02  0.000E+00  0.000E+00  0.000E+00  1.02966E+03  2.243E+00  5.509E+01  5.571E+00  2.145E-01
   2   13    6     8     1    1.3997E+02  1.6993E+00   1.3827E+02  0.000E+00  0.000E+00  0.000E+00  1.02461E+03  2.738E+00  3.971E+01  4.046E+00  1.400E-01
   2   13    5     8     2    1.3827E+02 -1.4786E+00   1.3975E+02  0.000E+00  0.000E+00  0.000E+00  1.01836E+03  2.738E+00  3.969E+01  4.045E+00 -1.218E-01
   2   13    4     8     3    1.3975E+02 -4.5152E+00   1.4426E+02  0.000E+00  0.000E+00  0.000E+00  1.01213E+03  2.760E+00  4.001E+01  4.078E+00 -3.691E-01
   2   13    3     8     4    1.4426E+02 -5.2724E+00   1.4953E+02  0.000E+00  0.000E+00  0.000E+00  1.00592E+03  2.795E+00  4.053E+01  4.130E+00 -4.256E-01
   2   13    2     8     5    1.4953E+02 -3.2611E+00   1.5280E+02  0.000E+00  0.000E+00  0.000E+00  9.99700E+02  2.825E+00  4.096E+01  4.174E+00 -2.604E-01
   2   13    1     8     6    1.5280E+02 -2.0863E+00   1.5488E+02  0.000E+00  0.000E+00  0.000E+00  9.94719E+02  2.844E+00  4.123E+01  2.521E+00 -2.758E-01
   2    4    5     9     1    0.0000E+00  0.0000E+00   0.0000E+00  0.000E+00  0.000E+00  0.000E+00  1.06000E+03  0.000E+00  2.000E+01  2.000E-03  1.000E+00
   2    4    5    10     1    0.0000E+00  0.0000E+00   0.0000E+00  0.000E+00  0.000E+00  0.000E+00  1.08000E+03  0.000E+00  2.000E+01  2.000E-03  1.000E+00



 ..........LAKE  1 IS DRY..........

     SECTIONS OF THE LAKE BOTTOM HAVE BECOME DRY.  THE DRYSECTIONS
     LIE ABOVE THE FOLLOWING  1 AQUIFER CELLS (LAYER,ROW,COLUMN):
     (  2,  4,  5)  (

 PERIOD     2     TIME STEP     1     TIME STEP LENGTH  1.7520E+05
 PERIOD TIME  1.7520E+05     TOTAL SIMULATION TIME  2.8032E+06


                 HYDROLOGIC BUDGET SUMMARIES FOR SIMULATED LAKES
     (ALL FLUID FLUXES ARE VOLUMES ADDED TO THE LAKE DURING PRESENT TIME STEP)
     ----------------------------------------------------------------------------------------
 LAKE    STAGE         VOLUME     VOL. CHANGE      PRECIP     EVAPORATION    SPECIFIED RUNOFF     COMPUTED RUNOFF    TOTAL RUNOFF
   1  1.074500E+03  0.000000E+00  0.000000E+00  0.000000E+00  0.000000E+00   0.000000E+00          0.000000E+00      0.000000E+00

            GROUND WATER            SURFACE WATER        WATER          UZF INFIL.
 LAKE    INFLOW     OUTFLOW      INFLOW     OUTFLOW       USE        FROM LAKE
   1  0.0000E+00  0.0000E+00  0.0000E+00  0.0000E+00  0.0000E+00       0.0000E+00

      CONNECTED LAKE   TIME-STEP         STAGE-CHANGE          PERCENT
 LAKE    INFLUX      SURFACE AREA   TIME STEP  CUMULATIVE    DISCREPANCY
   1   0.0000E+00     0.0000E+00   0.0000E+00  0.0000E+00       0.000
 --------------------------------------------------------------------------------



            CUMULATIVE HYDROLOGIC BUDGET SUMMARIES FOR SIMULATED LAKES
     (ALL FLUID FLUXES ARE SUMS OF VOLUMES ADDED TO THE LAKE SINCE INITIAL TIME)
     ---------------------------------------------------------------------------
 LAKE       PRECIP       EVAP     SPECIFIED RUNOFF   COMPUTED RUNOFF   TOTAL RUNOFF
   1     0.0000E+00  0.0000E+00       0.0000E+00       0.0000E+00       0.0000E+00

            GROUND WATER            SURFACE WATER       UZF INFIL.
 LAKE    INFLOW     OUTFLOW      INFLOW     OUTFLOW     FROM LAKE
   1  0.0000E+00  0.0000E+00  0.0000E+00  0.0000E+00    0.0000E+00

         WATER    CONNECTED LAKE   CHANGE       PERCENT
 LAKE     USE         INFLUX       IN VOL.    DISCREPANCY
   1   0.0000E+00   0.0000E+00   0.0000E+00      0.000
 --------------------------------------------------------------------------------

 UBDSV3 SAVING "           GW ET" ON UNIT  61 AT TIME STEP 1, STRESS PERIOD 2
 UBDSV3 SAVING "    UZF RECHARGE" ON UNIT  61 AT TIME STEP 1, STRESS PERIOD 2
 UBDSV3 SAVING " SURFACE LEAKAGE" ON UNIT  61 AT TIME STEP 1, STRESS PERIOD 2


UNSATURATED ZONE PACKAGE VOLUMETRIC BUDGET FOR  TIME STEP     1 STRESS PERIOD    2
  ------------------------------------------------------------------------------



     CUMULATIVE VOLUMES      L**3       RATES FOR THIS TIME STEP      L**3/T
     ------------------                 ------------------------

           IN:                                      IN:
           ---                                      ---
        INFILTRATION =    14064180.0000          INFILTRATION =          67.6000

          OUT:                                     OUT:
          ----                                     ----
              UZF ET =    22891432.3044                UZF ET =         130.6589
        UZF RECHARGE =    10019249.8755          UZF RECHARGE =          44.5125

            IN - OUT =   -18846502.1799              IN - OUT =        -107.5714

          STORAGE:                                 STORAGE:
          --------                                 --------
      STORAGE CHANGE =   -18841782.2683        STORAGE CHANGE =        -107.5444

 PERCENT DISCREPANCY IS DIFFERENCE BETWEEN IN-OUT MINUS CHANGE IN STORAGE
 DIVIDED BY THE AVERAGE OF IN AND OUT TIMES 100

 PERCENT DISCREPANCY =          -0.00     PERCENT DISCREPANCY =          -0.02






1
  VOLUMETRIC BUDGET FOR ENTIRE MODEL AT END OF TIME STEP    1, STRESS PERIOD   2
  ------------------------------------------------------------------------------

     CUMULATIVE VOLUMES      L**3       RATES FOR THIS TIME STEP      L**3/T
     ------------------                 ------------------------

           IN:                                      IN:
           ---                                      ---
             STORAGE     =      937146.1250               STORAGE     =           5.3490
       CONSTANT HEAD     =           0.0000         CONSTANT HEAD     =           0.0000
               WELLS     =           0.0000                 WELLS     =           0.0000
     HEAD DEP BOUNDS     =      605417.9375       HEAD DEP BOUNDS     =           0.2156
      STREAM LEAKAGE     =   141364432.0000        STREAM LEAKAGE     =          44.4548
       LAKE  SEEPAGE     =           0.0000         LAKE  SEEPAGE     =           0.0000
        UZF RECHARGE     =    10019248.0000          UZF RECHARGE     =          44.5125
               GW ET     =           0.0000                 GW ET     =           0.0000
     SURFACE LEAKAGE     =           0.0000       SURFACE LEAKAGE     =           0.0000

                TOTAL IN =   152926240.0000                  TOTAL IN =          94.5320

          OUT:                                     OUT:
          ----                                     ----
             STORAGE     =     8170424.5000               STORAGE     =          46.6348
       CONSTANT HEAD     =           0.0000         CONSTANT HEAD     =           0.0000
               WELLS     =    56064000.0000                 WELLS     =          20.0000
     HEAD DEP BOUNDS     =      803380.3125       HEAD DEP BOUNDS     =           0.2868
      STREAM LEAKAGE     =    48397216.0000        STREAM LEAKAGE     =          17.3369
       LAKE  SEEPAGE     =           0.0000         LAKE  SEEPAGE     =           0.0000
        UZF RECHARGE     =           0.0000          UZF RECHARGE     =           0.0000
               GW ET     =    39492012.0000                 GW ET     =          10.2731
     SURFACE LEAKAGE     =           0.0000       SURFACE LEAKAGE     =           0.0000

               TOTAL OUT =   152927040.0000                 TOTAL OUT =          94.5316

                IN - OUT =        -800.0000                  IN - OUT =       3.6621E-04

     PERCENT DISCREPANCY =          -0.00         PERCENT DISCREPANCY =           0.00






         TIME SUMMARY AT END OF TIME STEP    1 IN STRESS PERIOD    2
                    SECONDS     MINUTES      HOURS       DAYS        YEARS
                    -----------------------------------------------------------
   TIME STEP LENGTH 1.75200E+05  2920.0      48.667      2.0278     5.55175E-03
 STRESS PERIOD TIME 1.75200E+05  2920.0      48.667      2.0278     5.55175E-03
         TOTAL TIME 2.80320E+06  46720.      778.67      32.444     8.88281E-02
1
 
 SOLVING FOR HEAD 
                                                   Max.-Head-Change                         Max.-Flux-Residual
  Residual-Control   Outer-Iter.   Inner-Iter.     Column Row Layer    Maximum-Head-Change  Column Row Layer    Maximum-Flux-Residual          L2-NORM 
          0                 1           2             6    5     2      -0.5975385435E-01       6    5    2        -0.1747742920E+01      0.5475385219E+01
          0                 2           2             6    5     2       0.4968435527E-02       6    5    2         0.1513274534E+00      0.2174619630E+00
          0                 3           1             6    5     2      -0.2864983036E-03       6    5    2        -0.9079728422E-02      0.1240462025E-01

    ------------------------------------------------
       NWT REQUIRED            3 OUTER ITERATIONS 
       AND A TOTAL OF          5 INNER ITERATIONS.
    ------------------------------------------------

 NO OUTPUT CONTROL FOR STRESS PERIOD    2   TIME STEP    2
 ..........LAKE  1 IS DRY..........
 
 SOLVING FOR HEAD 
                                                   Max.-Head-Change                         Max.-Flux-Residual
  Residual-Control   Outer-Iter.   Inner-Iter.     Column Row Layer    Maximum-Head-Change  Column Row Layer    Maximum-Flux-Residual          L2-NORM 
          0                 1           2             6    5     2      -0.5403722153E-01       6    5    2        -0.1574288078E+01      0.5236025870E+01
          0                 2           2             6    5     2       0.5152274812E-02       6    5    2         0.1566667893E+00      0.2225496436E+00
          0                 3           1             6    5     2      -0.2966080398E-03       6    5    2        -0.9400096251E-02      0.1274905614E-01

    ------------------------------------------------
       NWT REQUIRED            3 OUTER ITERATIONS 
       AND A TOTAL OF          5 INNER ITERATIONS.
    ------------------------------------------------

 NO OUTPUT CONTROL FOR STRESS PERIOD    2   TIME STEP    3
 ..........LAKE  1 IS DRY..........
 
 SOLVING FOR HEAD 
                                                   Max.-Head-Change                         Max.-Flux-Residual
  Residual-Control   Outer-Iter.   Inner-Iter.     Column Row Layer    Maximum-Head-Change  Column Row Layer    Maximum-Flux-Residual          L2-NORM 
          0                 1           2             6    5     2      -0.4852175262E-01       6    5    2        -0.1406551529E+01      0.5082295389E+01
          0                 2           2             6    5     2       0.4643790633E-02       6    5    2         0.1406474314E+00      0.2098431335E+00
          0                 3           1             6    5     2      -0.2668215592E-03       6    5    2        -0.8438915021E-02      0.1175853945E-01

    ------------------------------------------------
       NWT REQUIRED            3 OUTER ITERATIONS 
       AND A TOTAL OF          5 INNER ITERATIONS.
    ------------------------------------------------

 NO OUTPUT CONTROL FOR STRESS PERIOD    2   TIME STEP    4
 ..........LAKE  1 IS DRY..........
 
 SOLVING FOR HEAD 
                                                   Max.-Head-Change                         Max.-Flux-Residual
  Residual-Control   Outer-Iter.   Inner-Iter.     Column Row Layer    Maximum-Head-Change  Column Row Layer    Maximum-Flux-Residual          L2-NORM 
          0                 1           2             8    2     2       0.4773254796E-01       6    5    2        -0.1262498051E+01      0.4929905904E+01
          0                 2           2             6    5     2       0.4178287174E-02       6    5    2         0.1262435102E+00      0.1941962719E+00
          0                 3           1             6    5     2      -0.2395666132E-03       6    5    2        -0.7574666512E-02      0.1058133941E-01

    ------------------------------------------------
       NWT REQUIRED            3 OUTER ITERATIONS 
       AND A TOTAL OF          5 INNER ITERATIONS.
    ------------------------------------------------

 OUTPUT CONTROL FOR STRESS PERIOD    2   TIME STEP    5
    PRINT BUDGET
    SAVE BUDGET

            WELLS   PERIOD    2   STEP   5
 WELL      1   LAYER   2   ROW     6   COL     4   RATE    -2.00000    
 WELL      2   LAYER   2   ROW     6   COL     5   RATE    -2.00000    
 WELL      3   LAYER   2   ROW     7   COL     4   RATE    -2.00000    
 WELL      4   LAYER   2   ROW     7   COL     5   RATE    -2.00000    
 WELL      5   LAYER   2   ROW     8   COL     4   RATE    -2.00000    
 WELL      6   LAYER   2   ROW     8   COL     5   RATE    -2.00000    
 WELL      7   LAYER   2   ROW     9   COL     4   RATE    -2.00000    
 WELL      8   LAYER   2   ROW     9   COL     5   RATE    -2.00000    
 WELL      9   LAYER   2   ROW    10   COL     4   RATE    -2.00000    
 WELL     10   LAYER   2   ROW    10   COL     5   RATE    -2.00000    

  HEAD DEP BOUNDS   PERIOD    2   STEP     5
 BOUNDARY      1   LAYER   2   ROW    13   COL     1   RATE   -0.287312    
 BOUNDARY      2   LAYER   2   ROW    14   COL     9   RATE    0.214769    



 STREAM LISTING     PERIOD      2   STEP        5

 LAYER ROW COL. STREAM  RCH.  FLOW INTO     FLOW TO   FLOW OUT OF   OVRLND.     DIRECT     STREAM       STREAM     STREAM     STREAM   STREAMBED  STREAMBED
                SEG.NO.  NO.  STRM. RCH.    AQUIFER    STRM. RCH.    RUNOFF     PRECIP       ET          HEAD       DEPTH      WIDTH   CONDCTNC.   GRADIENT

   2    1    1     1     1    2.1000E+01  1.7959E+00   1.9204E+01  0.000E+00  0.000E+00  0.000E+00  1.09415E+03  1.102E+00  1.202E+01  5.410E-01  1.106E+00
   2    2    2     1     2    1.9204E+01  3.2007E+00   1.6003E+01  0.000E+00  0.000E+00  0.000E+00  1.08912E+03  1.060E+00  1.126E+01  7.883E-01  1.353E+00
   2    3    3     1     3    1.6003E+01  2.4809E+00   1.3523E+01  0.000E+00  0.000E+00  0.000E+00  1.08343E+03  1.007E+00  1.032E+01  6.191E-01  1.336E+00
   2    3    4     1     4    1.3523E+01  2.0856E+00   1.1437E+01  0.000E+00  0.000E+00  0.000E+00  1.07837E+03  9.596E-01  9.490E+00  5.267E-01  1.320E+00
   2    4    5     2     1    1.4370E+00  1.4370E+00   0.0000E+00  0.000E+00  0.000E+00  0.000E+00  1.07198E+03  4.895E-02  1.200E+01  7.800E-01  1.016E+00
   2    5    6     2     2    0.0000E+00  0.0000E+00   0.0000E+00  0.000E+00  0.000E+00  0.000E+00  1.06651E+03  0.000E+00  1.200E+01  6.000E-01  1.000E+00
   2    6    6     2     3    0.0000E+00  0.0000E+00   0.0000E+00  0.000E+00  0.000E+00  0.000E+00  1.06179E+03  0.000E+00  1.200E+01  6.000E-01  1.000E+00
   2    7    6     2     4    0.0000E+00  0.0000E+00   0.0000E+00  0.000E+00  0.000E+00  0.000E+00  1.05708E+03  0.000E+00  1.200E+01  6.000E-01  1.000E+00
   2    8    6     2     5    0.0000E+00  0.0000E+00   0.0000E+00  0.000E+00  0.000E+00  0.000E+00  1.05236E+03  0.000E+00  1.200E+01  6.000E-01  1.000E+00
   2    3    5     3     1    1.0000E+01  2.8252E+00   7.1748E+00  0.000E+00  0.000E+00  0.000E+00  1.07555E+03  1.909E+00  9.636E+00  7.227E-01  1.955E+00
   2    3    6     3     2    7.1748E+00  2.4905E+00   4.6843E+00  0.000E+00  0.000E+00  0.000E+00  1.07264E+03  1.727E+00  8.909E+00  6.682E-01  1.864E+00
   2    3    7     3     3    4.6843E+00  1.9718E+00   2.7125E+00  0.000E+00  0.000E+00  0.000E+00  1.06987E+03  1.555E+00  8.218E+00  5.547E-01  1.777E+00
   2    4    8     3     4    2.7125E+00  2.2567E+00   4.5579E-01  0.000E+00  0.000E+00  0.000E+00  1.06682E+03  1.364E+00  7.455E+00  6.709E-01  1.682E+00
   2    5    8     3     5    4.5579E-01  4.5579E-01   0.0000E+00  0.000E+00  0.000E+00  0.000E+00  1.06362E+03  0.000E+00  6.655E+00  4.991E-01  1.582E+00
   2    6    8     3     6    0.0000E+00  0.0000E+00   0.0000E+00  0.000E+00  0.000E+00  0.000E+00  1.06055E+03  0.000E+00  6.145E+00  1.844E-01  1.000E+00
   2    5   10     4     1    1.0000E+01  9.0525E-01   9.0947E+00  0.000E+00  0.000E+00  0.000E+00  1.07835E+03  6.210E-01  1.000E+01  2.500E-01  1.207E+00
   2    5    9     4     2    9.0947E+00  1.7835E+00   7.3113E+00  0.000E+00  0.000E+00  0.000E+00  1.07148E+03  5.670E-01  1.000E+01  5.000E-01  1.189E+00
   2    6    8     4     3    7.3113E+00  1.2257E+00   6.0855E+00  0.000E+00  0.000E+00  0.000E+00  1.06368E+03  5.021E-01  1.000E+01  3.500E-01  1.167E+00
   2    6    8     5     1    6.0855E+00  1.4716E+00   4.6139E+00  0.000E+00  0.000E+00  0.000E+00  1.05854E+03  5.396E-01  1.039E+01  4.158E-01  1.180E+00
   2    7    7     5     2    4.6139E+00  1.4897E+00   3.1242E+00  0.000E+00  0.000E+00  0.000E+00  1.05398E+03  4.817E-01  8.557E+00  4.279E-01  1.161E+00
   2    8    7     5     3    3.1242E+00  8.2855E-01   2.2957E+00  0.000E+00  0.000E+00  0.000E+00  1.04968E+03  4.253E-01  6.911E+00  2.419E-01  1.142E+00
   2    8    6     5     4    2.2957E+00  4.9455E-01   1.8011E+00  0.000E+00  0.000E+00  0.000E+00  1.04664E+03  3.856E-01  5.843E+00  1.461E-01  1.129E+00
   2    9    6     6     1    1.8011E+00  1.8011E+00   0.0000E+00  0.000E+00  0.000E+00  0.000E+00  1.04278E+03  5.669E-02  1.200E+01  6.000E-01  1.019E+00
   2   10    7     6     2    0.0000E+00  0.0000E+00   0.0000E+00  0.000E+00  0.000E+00  0.000E+00  1.03818E+03  0.000E+00  1.200E+01  6.000E-01  1.000E+00
   2   11    7     6     3    0.0000E+00  0.0000E+00   0.0000E+00  0.000E+00  0.000E+00  0.000E+00  1.03364E+03  0.000E+00  1.200E+01  6.000E-01  1.000E+00
   2   12    7     6     4    0.0000E+00  0.0000E+00   0.0000E+00  0.000E+00  0.000E+00  0.000E+00  1.02909E+03  0.000E+00  1.200E+01  6.000E-01  5.817E-01
   2   13    7     6     5    0.0000E+00 -7.2795E-01   7.2795E-01  0.000E+00  0.000E+00  0.000E+00  1.02601E+03  9.652E-02  1.200E+01  2.400E-01 -1.011E+00
   2   14    9     7     1    1.5000E+02  2.8854E+00   1.4711E+02  0.000E+00  0.000E+00  0.000E+00  1.03986E+03  2.284E+00  5.528E+01  5.591E+00  1.720E-01
   2   13    8     7     2    1.4711E+02  4.0247E+00   1.4309E+02  0.000E+00  0.000E+00  0.000E+00  1.03477E+03  2.265E+00  5.519E+01  6.140E+00  2.185E-01
   2   13    7     7     3    1.4309E+02  3.4852E+00   1.3960E+02  0.000E+00  0.000E+00  0.000E+00  1.02966E+03  2.245E+00  5.510E+01  5.572E+00  2.085E-01
   2   13    6     8     1    1.4033E+02  1.6140E+00   1.3872E+02  0.000E+00  0.000E+00  0.000E+00  1.02462E+03  2.741E+00  3.975E+01  4.051E+00  1.328E-01
   2   13    5     8     2    1.3872E+02 -1.6090E+00   1.4033E+02  0.000E+00  0.000E+00  0.000E+00  1.01837E+03  2.741E+00  3.975E+01  4.051E+00 -1.324E-01
   2   13    4     8     3    1.4033E+02 -4.6733E+00   1.4500E+02  0.000E+00  0.000E+00  0.000E+00  1.01214E+03  2.764E+00  4.008E+01  4.085E+00 -3.814E-01
   2   13    3     8     4    1.4500E+02 -5.4369E+00   1.5044E+02  0.000E+00  0.000E+00  0.000E+00  1.00593E+03  2.801E+00  4.061E+01  4.138E+00 -4.379E-01
   2   13    2     8     5    1.5044E+02 -3.3467E+00   1.5378E+02  0.000E+00  0.000E+00  0.000E+00  9.99707E+02  2.832E+00  4.106E+01  4.184E+00 -2.666E-01
   2   13    1     8     6    1.5378E+02 -2.1109E+00   1.5590E+02  0.000E+00  0.000E+00  0.000E+00  9.94726E+02  2.851E+00  4.133E+01  2.527E+00 -2.784E-01
   2    4    5     9     1    0.0000E+00  0.0000E+00   0.0000E+00  0.000E+00  0.000E+00  0.000E+00  1.06000E+03  0.000E+00  2.000E+01  2.000E-03  1.000E+00
   2    4    5    10     1    0.0000E+00  0.0000E+00   0.0000E+00  0.000E+00  0.000E+00  0.000E+00  1.08000E+03  0.000E+00  2.000E+01  2.000E-03  1.000E+00



 ..........LAKE  1 IS DRY..........

     SECTIONS OF THE LAKE BOTTOM HAVE BECOME DRY.  THE DRYSECTIONS
     LIE ABOVE THE FOLLOWING  1 AQUIFER CELLS (LAYER,ROW,COLUMN):
     (  2,  4,  5)  (

 PERIOD     2     TIME STEP     5     TIME STEP LENGTH  1.7520E+05
 PERIOD TIME  8.7600E+05     TOTAL SIMULATION TIME  3.5040E+06


                 HYDROLOGIC BUDGET SUMMARIES FOR SIMULATED LAKES
     (ALL FLUID FLUXES ARE VOLUMES ADDED TO THE LAKE DURING PRESENT TIME STEP)
     ----------------------------------------------------------------------------------------
 LAKE    STAGE         VOLUME     VOL. CHANGE      PRECIP     EVAPORATION    SPECIFIED RUNOFF     COMPUTED RUNOFF    TOTAL RUNOFF
   1  1.074500E+03  0.000000E+00  0.000000E+00  0.000000E+00  0.000000E+00   0.000000E+00          0.000000E+00      0.000000E+00

            GROUND WATER            SURFACE WATER        WATER          UZF INFIL.
 LAKE    INFLOW     OUTFLOW      INFLOW     OUTFLOW       USE        FROM LAKE
   1  0.0000E+00  0.0000E+00  0.0000E+00  0.0000E+00  0.0000E+00       0.0000E+00

      CONNECTED LAKE   TIME-STEP         STAGE-CHANGE          PERCENT
 LAKE    INFLUX      SURFACE AREA   TIME STEP  CUMULATIVE    DISCREPANCY
   1   0.0000E+00     0.0000E+00   0.0000E+00  0.0000E+00       0.000
 --------------------------------------------------------------------------------



            CUMULATIVE HYDROLOGIC BUDGET SUMMARIES FOR SIMULATED LAKES
     (ALL FLUID FLUXES ARE SUMS OF VOLUMES ADDED TO THE LAKE SINCE INITIAL TIME)
     ---------------------------------------------------------------------------
 LAKE       PRECIP       EVAP     SPECIFIED RUNOFF   COMPUTED RUNOFF   TOTAL RUNOFF
   1     0.0000E+00  0.0000E+00       0.0000E+00       0.0000E+00       0.0000E+00

            GROUND WATER            SURFACE WATER       UZF INFIL.
 LAKE    INFLOW     OUTFLOW      INFLOW     OUTFLOW     FROM LAKE
   1  0.0000E+00  0.0000E+00  0.0000E+00  0.0000E+00    0.0000E+00

         WATER    CONNECTED LAKE   CHANGE       PERCENT
 LAKE     USE         INFLUX       IN VOL.    DISCREPANCY
   1   0.0000E+00   0.0000E+00   0.0000E+00      0.000
 --------------------------------------------------------------------------------

 UBDSV3 SAVING "           GW ET" ON UNIT  61 AT TIME STEP 5, STRESS PERIOD 2
 UBDSV3 SAVING "    UZF RECHARGE" ON UNIT  61 AT TIME STEP 5, STRESS PERIOD 2
 UBDSV3 SAVING " SURFACE LEAKAGE" ON UNIT  61 AT TIME STEP 5, STRESS PERIOD 2


UNSATURATED ZONE PACKAGE VOLUMETRIC BUDGET FOR  TIME STEP     5 STRESS PERIOD    2
  ------------------------------------------------------------------------------



     CUMULATIVE VOLUMES      L**3       RATES FOR THIS TIME STEP      L**3/T
     ------------------                 ------------------------

           IN:                                      IN:
           ---                                      ---
        INFILTRATION =    61438260.0000          INFILTRATION =          67.6000

          OUT:                                     OUT:
          ----                                     ----
              UZF ET =   114401530.8252                UZF ET =         130.5394
        UZF RECHARGE =    40012359.6579          UZF RECHARGE =          41.3871

            IN - OUT =   -92975630.4831              IN - OUT =        -104.3265

          STORAGE:                                 STORAGE:
          --------                                 --------
      STORAGE CHANGE =   -92951615.0945        STORAGE CHANGE =        -104.3021

 PERCENT DISCREPANCY IS DIFFERENCE BETWEEN IN-OUT MINUS CHANGE IN STORAGE
 DIVIDED BY THE AVERAGE OF IN AND OUT TIMES 100

 PERCENT DISCREPANCY =          -0.00     PERCENT DISCREPANCY =          -0.01






1
  VOLUMETRIC BUDGET FOR ENTIRE MODEL AT END OF TIME STEP    5, STRESS PERIOD   2
  ------------------------------------------------------------------------------

     CUMULATIVE VOLUMES      L**3       RATES FOR THIS TIME STEP      L**3/T
     ------------------                 ------------------------

           IN:                                      IN:
           ---                                      ---
             STORAGE     =     4585531.5000               STORAGE     =           5.4982
       CONSTANT HEAD     =           0.0000         CONSTANT HEAD     =           0.0000
               WELLS     =           0.0000                 WELLS     =           0.0000
     HEAD DEP BOUNDS     =      756117.1250       HEAD DEP BOUNDS     =           0.2148
      STREAM LEAKAGE     =   172024672.0000        STREAM LEAKAGE     =          43.0093
       LAKE  SEEPAGE     =           0.0000         LAKE  SEEPAGE     =           0.0000
        UZF RECHARGE     =    40012356.0000          UZF RECHARGE     =          41.3871
               GW ET     =           0.0000                 GW ET     =           0.0000
     SURFACE LEAKAGE     =           0.0000       SURFACE LEAKAGE     =           0.0000

                TOTAL IN =   217378672.0000                  TOTAL IN =          90.1094

          OUT:                                     OUT:
          ----                                     ----
             STORAGE     =    38765152.0000               STORAGE     =          41.5577
       CONSTANT HEAD     =           0.0000         CONSTANT HEAD     =           0.0000
               WELLS     =    70080000.0000                 WELLS     =          20.0000
     HEAD DEP BOUNDS     =     1004592.1250       HEAD DEP BOUNDS     =           0.2873
      STREAM LEAKAGE     =    60798772.0000        STREAM LEAKAGE     =          17.9047
       LAKE  SEEPAGE     =           0.0000         LAKE  SEEPAGE     =           0.0000
        UZF RECHARGE     =           0.0000          UZF RECHARGE     =           0.0000
               GW ET     =    46730728.0000                 GW ET     =          10.3593
     SURFACE LEAKAGE     =           0.0000       SURFACE LEAKAGE     =           0.0000

               TOTAL OUT =   217379232.0000                 TOTAL OUT =          90.1091

                IN - OUT =        -560.0000                  IN - OUT =       2.8992E-04

     PERCENT DISCREPANCY =          -0.00         PERCENT DISCREPANCY =           0.00






         TIME SUMMARY AT END OF TIME STEP    5 IN STRESS PERIOD    2
                    SECONDS     MINUTES      HOURS       DAYS        YEARS
                    -----------------------------------------------------------
   TIME STEP LENGTH 1.75200E+05  2920.0      48.667      2.0278     5.55175E-03
 STRESS PERIOD TIME 8.76000E+05  14600.      243.33      10.139     2.77588E-02
         TOTAL TIME 3.50400E+06  58400.      973.33      40.556     0.11104    
1
 
 SOLVING FOR HEAD 
                                                   Max.-Head-Change                         Max.-Flux-Residual
  Residual-Control   Outer-Iter.   Inner-Iter.     Column Row Layer    Maximum-Head-Change  Column Row Layer    Maximum-Flux-Residual          L2-NORM 
          0                 1           2             8    2     2       0.4772582648E-01       6    5    2        -0.1139514779E+01      0.4763648491E+01
          0                 2           2             6    5     2       0.3780951788E-02       6    5    2         0.1139463005E+00      0.1784544306E+00
          0                 3           1             6    5     2      -0.2163419896E-03       6    5    2        -0.6836823805E-02      0.9571179290E-02

    ------------------------------------------------
       NWT REQUIRED            3 OUTER ITERATIONS 
       AND A TOTAL OF          5 INNER ITERATIONS.
    ------------------------------------------------

 NO OUTPUT CONTROL FOR STRESS PERIOD    2   TIME STEP    6
 ..........LAKE  1 IS DRY..........
 
 SOLVING FOR HEAD 
                                                   Max.-Head-Change                         Max.-Flux-Residual
  Residual-Control   Outer-Iter.   Inner-Iter.     Column Row Layer    Maximum-Head-Change  Column Row Layer    Maximum-Flux-Residual          L2-NORM 
          0                 1           2             8    2     2       0.4771542985E-01       6    5    2        -0.1033950110E+01      0.4609953720E+01
          0                 2           2             6    5     2       0.3438913135E-02       6    5    2         0.1033907180E+00      0.1646576386E+00
          0                 3           1             6    5     2      -0.1963850647E-03       6    5    2        -0.6203480974E-02      0.8821840174E-02

    ------------------------------------------------
       NWT REQUIRED            3 OUTER ITERATIONS 
       AND A TOTAL OF          5 INNER ITERATIONS.
    ------------------------------------------------

 NO OUTPUT CONTROL FOR STRESS PERIOD    2   TIME STEP    7
 ..........LAKE  1 IS DRY..........
 
 SOLVING FOR HEAD 
                                                   Max.-Head-Change                         Max.-Flux-Residual
  Residual-Control   Outer-Iter.   Inner-Iter.     Column Row Layer    Maximum-Head-Change  Column Row Layer    Maximum-Flux-Residual          L2-NORM 
          0                 1           2             8    2     2       0.4770100588E-01       6    5    2         0.9840800387E+00      0.4357363752E+01
          0                 2           2             6    5     2      -0.2772470051E-02       6    5    2        -0.9063336568E-01      0.1242139812E+00
          0                 3           1             6    6     2      -0.6946841153E-04       6    6    2        -0.2335768766E-02      0.3195612161E-02

    ------------------------------------------------
       NWT REQUIRED            3 OUTER ITERATIONS 
       AND A TOTAL OF          5 INNER ITERATIONS.
    ------------------------------------------------

 NO OUTPUT CONTROL FOR STRESS PERIOD    2   TIME STEP    8
 ..........LAKE  1 IS DRY..........
 
 SOLVING FOR HEAD 
                                                   Max.-Head-Change                         Max.-Flux-Residual
  Residual-Control   Outer-Iter.   Inner-Iter.     Column Row Layer    Maximum-Head-Change  Column Row Layer    Maximum-Flux-Residual          L2-NORM 
          0                 1           2             8    2     2       0.4768341114E-01       6    5    2         0.8634046195E+00      0.4199879789E+01
          0                 2           2             6    5     2      -0.1435055765E-02       6    5    2        -0.4705542824E-01      0.8820523940E-01
          0                 3           1             6    5     2       0.2232903354E-04       6    5    2         0.7713890327E-03      0.1866115308E-02

    ------------------------------------------------
       NWT REQUIRED            3 OUTER ITERATIONS 
       AND A TOTAL OF          5 INNER ITERATIONS.
    ------------------------------------------------

 NO OUTPUT CONTROL FOR STRESS PERIOD    2   TIME STEP    9
 ..........LAKE  1 IS DRY..........
 
 SOLVING FOR HEAD 
                                                   Max.-Head-Change                         Max.-Flux-Residual
  Residual-Control   Outer-Iter.   Inner-Iter.     Column Row Layer    Maximum-Head-Change  Column Row Layer    Maximum-Flux-Residual          L2-NORM 
          0                 1           2             8    2     2       0.4764542780E-01       6    5    2         0.7087063328E+00      0.4060429895E+01
          0                 2           2             6    5     2      -0.1178148214E-02       6    5    2        -0.3841712288E-01      0.8167349658E-01
          0                 3           1             7   12     2       0.2202942081E-04       7   12    2         0.6405256977E-03      0.1914404329E-02

    ------------------------------------------------
       NWT REQUIRED            3 OUTER ITERATIONS 
       AND A TOTAL OF          5 INNER ITERATIONS.
    ------------------------------------------------

 OUTPUT CONTROL FOR STRESS PERIOD    2   TIME STEP   10
    PRINT BUDGET
    SAVE BUDGET

            WELLS   PERIOD    2   STEP  10
 WELL      1   LAYER   2   ROW     6   COL     4   RATE    -2.00000    
 WELL      2   LAYER   2   ROW     6   COL     5   RATE    -2.00000    
 WELL      3   LAYER   2   ROW     7   COL     4   RATE    -2.00000    
 WELL      4   LAYER   2   ROW     7   COL     5   RATE    -2.00000    
 WELL      5   LAYER   2   ROW     8   COL     4   RATE    -2.00000    
 WELL      6   LAYER   2   ROW     8   COL     5   RATE    -2.00000    
 WELL      7   LAYER   2   ROW     9   COL     4   RATE    -2.00000    
 WELL      8   LAYER   2   ROW     9   COL     5   RATE    -2.00000    
 WELL      9   LAYER   2   ROW    10   COL     4   RATE    -2.00000    
 WELL     10   LAYER   2   ROW    10   COL     5   RATE    -2.00000    

  HEAD DEP BOUNDS   PERIOD    2   STEP    10
 BOUNDARY      1   LAYER   2   ROW    13   COL     1   RATE   -0.288408    
 BOUNDARY      2   LAYER   2   ROW    14   COL     9   RATE    0.214321    



 STREAM LISTING     PERIOD      2   STEP       10

 LAYER ROW COL. STREAM  RCH.  FLOW INTO     FLOW TO   FLOW OUT OF   OVRLND.     DIRECT     STREAM       STREAM     STREAM     STREAM   STREAMBED  STREAMBED
                SEG.NO.  NO.  STRM. RCH.    AQUIFER    STRM. RCH.    RUNOFF     PRECIP       ET          HEAD       DEPTH      WIDTH   CONDCTNC.   GRADIENT

   2    1    1     1     1    2.6000E+01  1.9980E+00   2.4002E+01  0.000E+00  0.000E+00  0.000E+00  1.09423E+03  1.180E+00  1.306E+01  5.878E-01  1.133E+00
   2    2    2     1     2    2.4002E+01  3.6151E+00   2.0387E+01  0.000E+00  0.000E+00  0.000E+00  1.08920E+03  1.137E+00  1.248E+01  8.739E-01  1.379E+00
   2    3    3     1     3    2.0387E+01  2.8624E+00   1.7524E+01  0.000E+00  0.000E+00  0.000E+00  1.08350E+03  1.083E+00  1.168E+01  7.010E-01  1.361E+00
   2    3    4     1     4    1.7524E+01  2.4292E+00   1.5095E+01  0.000E+00  0.000E+00  0.000E+00  1.07844E+03  1.037E+00  1.084E+01  6.017E-01  1.346E+00
   2    4    5     2     1    5.0953E+00  2.6429E+00   2.4524E+00  0.000E+00  0.000E+00  0.000E+00  1.07232E+03  3.883E-01  1.200E+01  7.800E-01  1.129E+00
   2    5    6     2     2    2.4524E+00  1.9332E+00   5.1922E-01  0.000E+00  0.000E+00  0.000E+00  1.06673E+03  2.220E-01  1.200E+01  6.000E-01  1.074E+00
   2    6    6     2     3    5.1922E-01  5.1922E-01   0.0000E+00  0.000E+00  0.000E+00  0.000E+00  1.06182E+03  2.658E-02  1.200E+01  6.000E-01  1.009E+00
   2    7    6     2     4    0.0000E+00  0.0000E+00   0.0000E+00  0.000E+00  0.000E+00  0.000E+00  1.05708E+03  0.000E+00  1.200E+01  6.000E-01  1.000E+00
   2    8    6     2     5    0.0000E+00  0.0000E+00   0.0000E+00  0.000E+00  0.000E+00  0.000E+00  1.05236E+03  0.000E+00  1.200E+01  6.000E-01  1.000E+00
   2    3    5     3     1    1.0000E+01  2.8252E+00   7.1748E+00  0.000E+00  0.000E+00  0.000E+00  1.07555E+03  1.909E+00  9.636E+00  7.227E-01  1.955E+00
   2    3    6     3     2    7.1748E+00  2.4905E+00   4.6843E+00  0.000E+00  0.000E+00  0.000E+00  1.07264E+03  1.727E+00  8.909E+00  6.682E-01  1.864E+00
   2    3    7     3     3    4.6843E+00  1.9718E+00   2.7125E+00  0.000E+00  0.000E+00  0.000E+00  1.06987E+03  1.555E+00  8.218E+00  5.547E-01  1.777E+00
   2    4    8     3     4    2.7125E+00  2.2567E+00   4.5579E-01  0.000E+00  0.000E+00  0.000E+00  1.06682E+03  1.364E+00  7.455E+00  6.709E-01  1.682E+00
   2    5    8     3     5    4.5579E-01  4.5579E-01   0.0000E+00  0.000E+00  0.000E+00  0.000E+00  1.06362E+03  0.000E+00  6.655E+00  4.991E-01  1.582E+00
   2    6    8     3     6    0.0000E+00  0.0000E+00   0.0000E+00  0.000E+00  0.000E+00  0.000E+00  1.06055E+03  0.000E+00  6.145E+00  1.844E-01  1.000E+00
   2    5   10     4     1    1.0000E+01  9.0525E-01   9.0947E+00  0.000E+00  0.000E+00  0.000E+00  1.07835E+03  6.210E-01  1.000E+01  2.500E-01  1.207E+00
   2    5    9     4     2    9.0947E+00  1.7835E+00   7.3113E+00  0.000E+00  0.000E+00  0.000E+00  1.07148E+03  5.670E-01  1.000E+01  5.000E-01  1.189E+00
   2    6    8     4     3    7.3113E+00  1.2257E+00   6.0855E+00  0.000E+00  0.000E+00  0.000E+00  1.06368E+03  5.021E-01  1.000E+01  3.500E-01  1.167E+00
   2    6    8     5     1    6.0855E+00  1.4716E+00   4.6139E+00  0.000E+00  0.000E+00  0.000E+00  1.05854E+03  5.396E-01  1.039E+01  4.158E-01  1.180E+00
   2    7    7     5     2    4.6139E+00  1.4897E+00   3.1242E+00  0.000E+00  0.000E+00  0.000E+00  1.05398E+03  4.817E-01  8.557E+00  4.279E-01  1.161E+00
   2    8    7     5     3    3.1242E+00  8.2855E-01   2.2957E+00  0.000E+00  0.000E+00  0.000E+00  1.04968E+03  4.253E-01  6.911E+00  2.419E-01  1.142E+00
   2    8    6     5     4    2.2957E+00  4.9455E-01   1.8011E+00  0.000E+00  0.000E+00  0.000E+00  1.04664E+03  3.856E-01  5.843E+00  1.461E-01  1.129E+00
   2    9    6     6     1    1.8011E+00  1.8011E+00   0.0000E+00  0.000E+00  0.000E+00  0.000E+00  1.04278E+03  5.669E-02  1.200E+01  6.000E-01  1.019E+00
   2   10    7     6     2    0.0000E+00  0.0000E+00   0.0000E+00  0.000E+00  0.000E+00  0.000E+00  1.03818E+03  0.000E+00  1.200E+01  6.000E-01  1.000E+00
   2   11    7     6     3    0.0000E+00  0.0000E+00   0.0000E+00  0.000E+00  0.000E+00  0.000E+00  1.03364E+03  0.000E+00  1.200E+01  6.000E-01  1.000E+00
   2   12    7     6     4    0.0000E+00  0.0000E+00   0.0000E+00  0.000E+00  0.000E+00  0.000E+00  1.02909E+03  0.000E+00  1.200E+01  6.000E-01  5.665E-01
   2   13    7     6     5    0.0000E+00 -7.3130E-01   7.3130E-01  0.000E+00  0.000E+00  0.000E+00  1.02601E+03  9.679E-02  1.200E+01  2.400E-01 -1.016E+00
   2   14    9     7     1    1.5000E+02  2.8206E+00   1.4718E+02  0.000E+00  0.000E+00  0.000E+00  1.03986E+03  2.284E+00  5.528E+01  5.591E+00  1.682E-01
   2   13    8     7     2    1.4718E+02  3.9460E+00   1.4323E+02  0.000E+00  0.000E+00  0.000E+00  1.03477E+03  2.266E+00  5.520E+01  6.140E+00  2.142E-01
   2   13    7     7     3    1.4323E+02  3.4119E+00   1.3982E+02  0.000E+00  0.000E+00  0.000E+00  1.02967E+03  2.246E+00  5.511E+01  5.572E+00  2.041E-01
   2   13    6     8     1    1.4055E+02  1.5314E+00   1.3902E+02  0.000E+00  0.000E+00  0.000E+00  1.02462E+03  2.743E+00  3.978E+01  4.054E+00  1.259E-01
   2   13    5     8     2    1.3902E+02 -1.7503E+00   1.4077E+02  0.000E+00  0.000E+00  0.000E+00  1.01837E+03  2.744E+00  3.979E+01  4.055E+00 -1.439E-01
   2   13    4     8     3    1.4077E+02 -4.7939E+00   1.4557E+02  0.000E+00  0.000E+00  0.000E+00  1.01214E+03  2.768E+00  4.014E+01  4.090E+00 -3.907E-01
   2   13    3     8     4    1.4557E+02 -5.5574E+00   1.5112E+02  0.000E+00  0.000E+00  0.000E+00  1.00593E+03  2.805E+00  4.067E+01  4.145E+00 -4.469E-01
   2   13    2     8     5    1.5112E+02 -3.4162E+00   1.5454E+02  0.000E+00  0.000E+00  0.000E+00  9.99712E+02  2.837E+00  4.113E+01  4.191E+00 -2.717E-01
   2   13    1     8     6    1.5454E+02 -2.1742E+00   1.5671E+02  0.000E+00  0.000E+00  0.000E+00  9.94731E+02  2.856E+00  4.141E+01  2.532E+00 -2.862E-01
   2    4    5     9     1    0.0000E+00  0.0000E+00   0.0000E+00  0.000E+00  0.000E+00  0.000E+00  1.06000E+03  0.000E+00  2.000E+01  2.000E-03  1.000E+00
   2    4    5    10     1    0.0000E+00  0.0000E+00   0.0000E+00  0.000E+00  0.000E+00  0.000E+00  1.08000E+03  0.000E+00  2.000E+01  2.000E-03  1.000E+00



 ..........LAKE  1 IS DRY..........

     SECTIONS OF THE LAKE BOTTOM HAVE BECOME DRY.  THE DRYSECTIONS
     LIE ABOVE THE FOLLOWING  1 AQUIFER CELLS (LAYER,ROW,COLUMN):
     (  2,  4,  5)  (

 PERIOD     2     TIME STEP    10     TIME STEP LENGTH  1.7520E+05
 PERIOD TIME  1.7520E+06     TOTAL SIMULATION TIME  4.3800E+06


                 HYDROLOGIC BUDGET SUMMARIES FOR SIMULATED LAKES
     (ALL FLUID FLUXES ARE VOLUMES ADDED TO THE LAKE DURING PRESENT TIME STEP)
     ----------------------------------------------------------------------------------------
 LAKE    STAGE         VOLUME     VOL. CHANGE      PRECIP     EVAPORATION    SPECIFIED RUNOFF     COMPUTED RUNOFF    TOTAL RUNOFF
   1  1.074500E+03  0.000000E+00  0.000000E+00  0.000000E+00  0.000000E+00   0.000000E+00          0.000000E+00      0.000000E+00

            GROUND WATER            SURFACE WATER        WATER          UZF INFIL.
 LAKE    INFLOW     OUTFLOW      INFLOW     OUTFLOW       USE        FROM LAKE
   1  0.0000E+00  0.0000E+00  0.0000E+00  0.0000E+00  0.0000E+00       0.0000E+00

      CONNECTED LAKE   TIME-STEP         STAGE-CHANGE          PERCENT
 LAKE    INFLUX      SURFACE AREA   TIME STEP  CUMULATIVE    DISCREPANCY
   1   0.0000E+00     0.0000E+00   0.0000E+00  0.0000E+00       0.000
 --------------------------------------------------------------------------------



            CUMULATIVE HYDROLOGIC BUDGET SUMMARIES FOR SIMULATED LAKES
     (ALL FLUID FLUXES ARE SUMS OF VOLUMES ADDED TO THE LAKE SINCE INITIAL TIME)
     ---------------------------------------------------------------------------
 LAKE       PRECIP       EVAP     SPECIFIED RUNOFF   COMPUTED RUNOFF   TOTAL RUNOFF
   1     0.0000E+00  0.0000E+00       0.0000E+00       0.0000E+00       0.0000E+00

            GROUND WATER            SURFACE WATER       UZF INFIL.
 LAKE    INFLOW     OUTFLOW      INFLOW     OUTFLOW     FROM LAKE
   1  0.0000E+00  0.0000E+00  0.0000E+00  0.0000E+00    0.0000E+00

         WATER    CONNECTED LAKE   CHANGE       PERCENT
 LAKE     USE         INFLUX       IN VOL.    DISCREPANCY
   1   0.0000E+00   0.0000E+00   0.0000E+00      0.000
 --------------------------------------------------------------------------------

 UBDSV3 SAVING "           GW ET" ON UNIT  61 AT TIME STEP 10, STRESS PERIOD 2
 UBDSV3 SAVING "    UZF RECHARGE" ON UNIT  61 AT TIME STEP 10, STRESS PERIOD 2
 UBDSV3 SAVING " SURFACE LEAKAGE" ON UNIT  61 AT TIME STEP 10, STRESS PERIOD 2


UNSATURATED ZONE PACKAGE VOLUMETRIC BUDGET FOR  TIME STEP    10 STRESS PERIOD    2
  ------------------------------------------------------------------------------



     CUMULATIVE VOLUMES      L**3       RATES FOR THIS TIME STEP      L**3/T
     ------------------                 ------------------------

           IN:                                      IN:
           ---                                      ---
        INFILTRATION =   120655860.0000          INFILTRATION =          67.6000

          OUT:                                     OUT:
          ----                                     ----
              UZF ET =   228702302.2383                UZF ET =         130.4437
        UZF RECHARGE =    74159927.3535          UZF RECHARGE =          37.3116

            IN - OUT =  -182206369.5917              IN - OUT =        -100.1553

          STORAGE:                                 STORAGE:
          --------                                 --------
      STORAGE CHANGE =  -182169798.5346        STORAGE CHANGE =        -100.1403

 PERCENT DISCREPANCY IS DIFFERENCE BETWEEN IN-OUT MINUS CHANGE IN STORAGE
 DIVIDED BY THE AVERAGE OF IN AND OUT TIMES 100

 PERCENT DISCREPANCY =          -0.00     PERCENT DISCREPANCY =          -0.01






1
  VOLUMETRIC BUDGET FOR ENTIRE MODEL AT END OF TIME STEP   10, STRESS PERIOD   2
  ------------------------------------------------------------------------------

     CUMULATIVE VOLUMES      L**3       RATES FOR THIS TIME STEP      L**3/T
     ------------------                 ------------------------

           IN:                                      IN:
           ---                                      ---
             STORAGE     =     7075127.5000               STORAGE     =           0.9386
       CONSTANT HEAD     =           0.0000         CONSTANT HEAD     =           0.0000
               WELLS     =           0.0000                 WELLS     =           0.0000
     HEAD DEP BOUNDS     =      943990.3125       HEAD DEP BOUNDS     =           0.2143
      STREAM LEAKAGE     =   212130240.0000        STREAM LEAKAGE     =          47.7098
       LAKE  SEEPAGE     =           0.0000         LAKE  SEEPAGE     =           0.0000
        UZF RECHARGE     =    74159920.0000          UZF RECHARGE     =          37.3116
               GW ET     =           0.0000                 GW ET     =           0.0000
     SURFACE LEAKAGE     =           0.0000       SURFACE LEAKAGE     =           0.0000

                TOTAL IN =   294309280.0000                  TOTAL IN =          86.1744

          OUT:                                     OUT:
          ----                                     ----
             STORAGE     =    72834616.0000               STORAGE     =          37.0326
       CONSTANT HEAD     =           0.0000         CONSTANT HEAD     =           0.0000
               WELLS     =    87600000.0000                 WELLS     =          20.0000
     HEAD DEP BOUNDS     =     1256872.0000       HEAD DEP BOUNDS     =           0.2884
      STREAM LEAKAGE     =    76773296.0000        STREAM LEAKAGE     =          18.4233
       LAKE  SEEPAGE     =           0.0000         LAKE  SEEPAGE     =           0.0000
        UZF RECHARGE     =           0.0000          UZF RECHARGE     =           0.0000
               GW ET     =    55844908.0000                 GW ET     =          10.4300
     SURFACE LEAKAGE     =           0.0000       SURFACE LEAKAGE     =           0.0000

               TOTAL OUT =   294309696.0000                 TOTAL OUT =          86.1743

                IN - OUT =        -416.0000                  IN - OUT =       6.1035E-05

     PERCENT DISCREPANCY =          -0.00         PERCENT DISCREPANCY =           0.00






         TIME SUMMARY AT END OF TIME STEP   10 IN STRESS PERIOD    2
                    SECONDS     MINUTES      HOURS       DAYS        YEARS
                    -----------------------------------------------------------
   TIME STEP LENGTH 1.75200E+05  2920.0      48.667      2.0278     5.55175E-03
 STRESS PERIOD TIME 1.75200E+06  29200.      486.67      20.278     5.55175E-02
         TOTAL TIME 4.38000E+06  73000.      1216.7      50.694     0.13879    
1
 
 SOLVING FOR HEAD 
                                                   Max.-Head-Change                         Max.-Flux-Residual
  Residual-Control   Outer-Iter.   Inner-Iter.     Column Row Layer    Maximum-Head-Change  Column Row Layer    Maximum-Flux-Residual          L2-NORM 
          0                 1           2             8    2     2       0.4758533496E-01       8    2    2         0.6186983835E+00      0.3973174562E+01
          0                 2           1             6    5     2      -0.9552491330E-03       6    5    2        -0.3136542464E-01      0.7793200857E-01

    ------------------------------------------------
       NWT REQUIRED            2 OUTER ITERATIONS 
       AND A TOTAL OF          3 INNER ITERATIONS.
    ------------------------------------------------

 NO OUTPUT CONTROL FOR STRESS PERIOD    2   TIME STEP   11
 ..........LAKE  1 IS DRY..........
 
 SOLVING FOR HEAD 
                                                   Max.-Head-Change                         Max.-Flux-Residual
  Residual-Control   Outer-Iter.   Inner-Iter.     Column Row Layer    Maximum-Head-Change  Column Row Layer    Maximum-Flux-Residual          L2-NORM 
          0                 1           2             8    2     2       0.4750689040E-01       8    2    2         0.6178869184E+00      0.3896214685E+01
          0                 2           1             6    6     2       0.1026163115E-02       6    6    2         0.3251618751E-01      0.7760830097E-01
          0                 3           1             7   12     2       0.2628909034E-04       3   12    2         0.7585595581E-03      0.2199528587E-02

    ------------------------------------------------
       NWT REQUIRED            3 OUTER ITERATIONS 
       AND A TOTAL OF          4 INNER ITERATIONS.
    ------------------------------------------------

 NO OUTPUT CONTROL FOR STRESS PERIOD    2   TIME STEP   12
 ..........LAKE  1 IS DRY..........
 
 SOLVING FOR HEAD 
                                                   Max.-Head-Change                         Max.-Flux-Residual
  Residual-Control   Outer-Iter.   Inner-Iter.     Column Row Layer    Maximum-Head-Change  Column Row Layer    Maximum-Flux-Residual          L2-NORM 
          0                 1           2             8    2     2       0.4741367076E-01       8    2    2         0.6168467186E+00      0.3787458782E+01
          0                 2           1             8    4     2      -0.9298368473E-03       6    6    2         0.2746800494E-01      0.7503929396E-01

    ------------------------------------------------
       NWT REQUIRED            2 OUTER ITERATIONS 
       AND A TOTAL OF          3 INNER ITERATIONS.
    ------------------------------------------------

 NO OUTPUT CONTROL FOR STRESS PERIOD    2   TIME STEP   13
 ..........LAKE  1 IS DRY..........
 
 SOLVING FOR HEAD 
                                                   Max.-Head-Change                         Max.-Flux-Residual
  Residual-Control   Outer-Iter.   Inner-Iter.     Column Row Layer    Maximum-Head-Change  Column Row Layer    Maximum-Flux-Residual          L2-NORM 
          0                 1           2             8    2     2       0.4730280369E-01       8    2    2         0.6156127784E+00      0.3661382507E+01
          0                 2           1             8    4     2      -0.9085273071E-03       6    6    2         0.2335023767E-01      0.7336781902E-01

    ------------------------------------------------
       NWT REQUIRED            2 OUTER ITERATIONS 
       AND A TOTAL OF          3 INNER ITERATIONS.
    ------------------------------------------------

 NO OUTPUT CONTROL FOR STRESS PERIOD    2   TIME STEP   14
 ..........LAKE  1 IS DRY..........
 
 SOLVING FOR HEAD 
                                                   Max.-Head-Change                         Max.-Flux-Residual
  Residual-Control   Outer-Iter.   Inner-Iter.     Column Row Layer    Maximum-Head-Change  Column Row Layer    Maximum-Flux-Residual          L2-NORM 
          0                 1           2             8    2     2       0.4717946716E-01       8    2    2         0.6141475882E+00      0.3555165576E+01
          0                 2           1             8    4     2      -0.8306235602E-03       6    6    2         0.1996357441E-01      0.7210538363E-01

    ------------------------------------------------
       NWT REQUIRED            2 OUTER ITERATIONS 
       AND A TOTAL OF          3 INNER ITERATIONS.
    ------------------------------------------------

 OUTPUT CONTROL FOR STRESS PERIOD    2   TIME STEP   15
    PRINT BUDGET
    PRINT HEAD FOR ALL LAYERS
    SAVE HEAD FOR ALL LAYERS
    SAVE BUDGET

            WELLS   PERIOD    2   STEP  15
 WELL      1   LAYER   2   ROW     6   COL     4   RATE    -2.00000    
 WELL      2   LAYER   2   ROW     6   COL     5   RATE    -2.00000    
 WELL      3   LAYER   2   ROW     7   COL     4   RATE    -2.00000    
 WELL      4   LAYER   2   ROW     7   COL     5   RATE    -2.00000    
 WELL      5   LAYER   2   ROW     8   COL     4   RATE    -2.00000    
 WELL      6   LAYER   2   ROW     8   COL     5   RATE    -2.00000    
 WELL      7   LAYER   2   ROW     9   COL     4   RATE    -2.00000    
 WELL      8   LAYER   2   ROW     9   COL     5   RATE    -2.00000    
 WELL      9   LAYER   2   ROW    10   COL     4   RATE    -2.00000    
 WELL     10   LAYER   2   ROW    10   COL     5   RATE    -2.00000    

  HEAD DEP BOUNDS   PERIOD    2   STEP    15
 BOUNDARY      1   LAYER   2   ROW    13   COL     1   RATE   -0.289189    
 BOUNDARY      2   LAYER   2   ROW    14   COL     9   RATE    0.214120    



 STREAM LISTING     PERIOD      2   STEP       15

 LAYER ROW COL. STREAM  RCH.  FLOW INTO     FLOW TO   FLOW OUT OF   OVRLND.     DIRECT     STREAM       STREAM     STREAM     STREAM   STREAMBED  STREAMBED
                SEG.NO.  NO.  STRM. RCH.    AQUIFER    STRM. RCH.    RUNOFF     PRECIP       ET          HEAD       DEPTH      WIDTH   CONDCTNC.   GRADIENT

   2    1    1     1     1    2.5000E+01  1.9559E+00   2.3044E+01  0.000E+00  0.000E+00  0.000E+00  1.09421E+03  1.165E+00  1.287E+01  5.790E-01  1.126E+00
   2    2    2     1     2    2.3044E+01  3.5443E+00   1.9500E+01  0.000E+00  0.000E+00  0.000E+00  1.08918E+03  1.122E+00  1.228E+01  8.599E-01  1.374E+00
   2    3    3     1     3    1.9500E+01  2.7880E+00   1.6712E+01  0.000E+00  0.000E+00  0.000E+00  1.08349E+03  1.069E+00  1.142E+01  6.852E-01  1.356E+00
   2    3    4     1     4    1.6712E+01  2.3622E+00   1.4350E+01  0.000E+00  0.000E+00  0.000E+00  1.07843E+03  1.022E+00  1.058E+01  5.873E-01  1.341E+00
   2    4    5     2     1    4.3496E+00  2.6064E+00   1.7432E+00  0.000E+00  0.000E+00  0.000E+00  1.07228E+03  3.415E-01  1.200E+01  7.800E-01  1.114E+00
   2    5    6     2     2    1.7432E+00  1.7432E+00   0.0000E+00  0.000E+00  0.000E+00  0.000E+00  1.06656E+03  5.497E-02  1.200E+01  6.000E-01  1.018E+00
   2    6    6     2     3    0.0000E+00  0.0000E+00   0.0000E+00  0.000E+00  0.000E+00  0.000E+00  1.06179E+03  0.000E+00  1.200E+01  6.000E-01  1.000E+00
   2    7    6     2     4    0.0000E+00  0.0000E+00   0.0000E+00  0.000E+00  0.000E+00  0.000E+00  1.05708E+03  0.000E+00  1.200E+01  6.000E-01  1.000E+00
   2    8    6     2     5    0.0000E+00  0.0000E+00   0.0000E+00  0.000E+00  0.000E+00  0.000E+00  1.05236E+03  0.000E+00  1.200E+01  6.000E-01  1.000E+00
   2    3    5     3     1    1.0000E+01  2.8252E+00   7.1748E+00  0.000E+00  0.000E+00  0.000E+00  1.07555E+03  1.909E+00  9.636E+00  7.227E-01  1.955E+00
   2    3    6     3     2    7.1748E+00  2.4905E+00   4.6843E+00  0.000E+00  0.000E+00  0.000E+00  1.07264E+03  1.727E+00  8.909E+00  6.682E-01  1.864E+00
   2    3    7     3     3    4.6843E+00  1.9718E+00   2.7125E+00  0.000E+00  0.000E+00  0.000E+00  1.06987E+03  1.555E+00  8.218E+00  5.547E-01  1.777E+00
   2    4    8     3     4    2.7125E+00  2.2567E+00   4.5579E-01  0.000E+00  0.000E+00  0.000E+00  1.06682E+03  1.364E+00  7.455E+00  6.709E-01  1.682E+00
   2    5    8     3     5    4.5579E-01  4.5579E-01   0.0000E+00  0.000E+00  0.000E+00  0.000E+00  1.06362E+03  0.000E+00  6.655E+00  4.991E-01  1.582E+00
   2    6    8     3     6    0.0000E+00  0.0000E+00   0.0000E+00  0.000E+00  0.000E+00  0.000E+00  1.06055E+03  0.000E+00  6.145E+00  1.844E-01  1.000E+00
   2    5   10     4     1    1.0000E+01  9.0525E-01   9.0947E+00  0.000E+00  0.000E+00  0.000E+00  1.07835E+03  6.210E-01  1.000E+01  2.500E-01  1.207E+00
   2    5    9     4     2    9.0947E+00  1.7835E+00   7.3113E+00  0.000E+00  0.000E+00  0.000E+00  1.07148E+03  5.670E-01  1.000E+01  5.000E-01  1.189E+00
   2    6    8     4     3    7.3113E+00  1.2257E+00   6.0855E+00  0.000E+00  0.000E+00  0.000E+00  1.06368E+03  5.021E-01  1.000E+01  3.500E-01  1.167E+00
   2    6    8     5     1    6.0855E+00  1.4716E+00   4.6139E+00  0.000E+00  0.000E+00  0.000E+00  1.05854E+03  5.396E-01  1.039E+01  4.158E-01  1.180E+00
   2    7    7     5     2    4.6139E+00  1.4897E+00   3.1242E+00  0.000E+00  0.000E+00  0.000E+00  1.05398E+03  4.817E-01  8.557E+00  4.279E-01  1.161E+00
   2    8    7     5     3    3.1242E+00  8.2855E-01   2.2957E+00  0.000E+00  0.000E+00  0.000E+00  1.04968E+03  4.253E-01  6.911E+00  2.419E-01  1.142E+00
   2    8    6     5     4    2.2957E+00  4.9455E-01   1.8011E+00  0.000E+00  0.000E+00  0.000E+00  1.04664E+03  3.856E-01  5.843E+00  1.461E-01  1.129E+00
   2    9    6     6     1    1.8011E+00  1.8011E+00   0.0000E+00  0.000E+00  0.000E+00  0.000E+00  1.04278E+03  5.669E-02  1.200E+01  6.000E-01  1.019E+00
   2   10    7     6     2    0.0000E+00  0.0000E+00   0.0000E+00  0.000E+00  0.000E+00  0.000E+00  1.03818E+03  0.000E+00  1.200E+01  6.000E-01  1.000E+00
   2   11    7     6     3    0.0000E+00  0.0000E+00   0.0000E+00  0.000E+00  0.000E+00  0.000E+00  1.03364E+03  0.000E+00  1.200E+01  6.000E-01  1.000E+00
   2   12    7     6     4    0.0000E+00  0.0000E+00   0.0000E+00  0.000E+00  0.000E+00  0.000E+00  1.02909E+03  0.000E+00  1.200E+01  6.000E-01  5.536E-01
   2   13    7     6     5    0.0000E+00 -7.3704E-01   7.3704E-01  0.000E+00  0.000E+00  0.000E+00  1.02601E+03  9.724E-02  1.200E+01  2.400E-01 -1.024E+00
   2   14    9     7     1    1.5000E+02  2.7914E+00   1.4721E+02  0.000E+00  0.000E+00  0.000E+00  1.03986E+03  2.284E+00  5.528E+01  5.591E+00  1.664E-01
   2   13    8     7     2    1.4721E+02  3.9031E+00   1.4331E+02  0.000E+00  0.000E+00  0.000E+00  1.03477E+03  2.266E+00  5.520E+01  6.141E+00  2.119E-01
   2   13    7     7     3    1.4331E+02  3.2803E+00   1.4003E+02  0.000E+00  0.000E+00  0.000E+00  1.02967E+03  2.247E+00  5.511E+01  5.573E+00  1.962E-01
   2   13    6     8     1    1.4076E+02  1.3899E+00   1.3937E+02  0.000E+00  0.000E+00  0.000E+00  1.02462E+03  2.745E+00  3.981E+01  4.057E+00  1.142E-01
   2   13    5     8     2    1.3937E+02 -1.8357E+00   1.4121E+02  0.000E+00  0.000E+00  0.000E+00  1.01837E+03  2.747E+00  3.983E+01  4.059E+00 -1.508E-01
   2   13    4     8     3    1.4121E+02 -4.8709E+00   1.4608E+02  0.000E+00  0.000E+00  0.000E+00  1.01215E+03  2.771E+00  4.019E+01  4.095E+00 -3.965E-01
   2   13    3     8     4    1.4608E+02 -5.6335E+00   1.5171E+02  0.000E+00  0.000E+00  0.000E+00  1.00593E+03  2.809E+00  4.073E+01  4.151E+00 -4.524E-01
   2   13    2     8     5    1.5171E+02 -3.4587E+00   1.5517E+02  0.000E+00  0.000E+00  0.000E+00  9.99716E+02  2.841E+00  4.119E+01  4.198E+00 -2.746E-01
   2   13    1     8     6    1.5517E+02 -2.2183E+00   1.5739E+02  0.000E+00  0.000E+00  0.000E+00  9.94736E+02  2.861E+00  4.148E+01  2.536E+00 -2.916E-01
   2    4    5     9     1    0.0000E+00  0.0000E+00   0.0000E+00  0.000E+00  0.000E+00  0.000E+00  1.06000E+03  0.000E+00  2.000E+01  2.000E-03  1.000E+00
   2    4    5    10     1    0.0000E+00  0.0000E+00   0.0000E+00  0.000E+00  0.000E+00  0.000E+00  1.08000E+03  0.000E+00  2.000E+01  2.000E-03  1.000E+00



 ..........LAKE  1 IS DRY..........

     SECTIONS OF THE LAKE BOTTOM HAVE BECOME DRY.  THE DRYSECTIONS
     LIE ABOVE THE FOLLOWING  1 AQUIFER CELLS (LAYER,ROW,COLUMN):
     (  2,  4,  5)  (

 PERIOD     2     TIME STEP    15     TIME STEP LENGTH  1.7520E+05
 PERIOD TIME  2.6280E+06     TOTAL SIMULATION TIME  5.2560E+06


                 HYDROLOGIC BUDGET SUMMARIES FOR SIMULATED LAKES
     (ALL FLUID FLUXES ARE VOLUMES ADDED TO THE LAKE DURING PRESENT TIME STEP)
     ----------------------------------------------------------------------------------------
 LAKE    STAGE         VOLUME     VOL. CHANGE      PRECIP     EVAPORATION    SPECIFIED RUNOFF     COMPUTED RUNOFF    TOTAL RUNOFF
   1  1.074500E+03  0.000000E+00  0.000000E+00  0.000000E+00  0.000000E+00   0.000000E+00          0.000000E+00      0.000000E+00

            GROUND WATER            SURFACE WATER        WATER          UZF INFIL.
 LAKE    INFLOW     OUTFLOW      INFLOW     OUTFLOW       USE        FROM LAKE
   1  0.0000E+00  0.0000E+00  0.0000E+00  0.0000E+00  0.0000E+00       0.0000E+00

      CONNECTED LAKE   TIME-STEP         STAGE-CHANGE          PERCENT
 LAKE    INFLUX      SURFACE AREA   TIME STEP  CUMULATIVE    DISCREPANCY
   1   0.0000E+00     0.0000E+00   0.0000E+00  0.0000E+00       0.000
 --------------------------------------------------------------------------------



            CUMULATIVE HYDROLOGIC BUDGET SUMMARIES FOR SIMULATED LAKES
     (ALL FLUID FLUXES ARE SUMS OF VOLUMES ADDED TO THE LAKE SINCE INITIAL TIME)
     ---------------------------------------------------------------------------
 LAKE       PRECIP       EVAP     SPECIFIED RUNOFF   COMPUTED RUNOFF   TOTAL RUNOFF
   1     0.0000E+00  0.0000E+00       0.0000E+00       0.0000E+00       0.0000E+00

            GROUND WATER            SURFACE WATER       UZF INFIL.
 LAKE    INFLOW     OUTFLOW      INFLOW     OUTFLOW     FROM LAKE
   1  0.0000E+00  0.0000E+00  0.0000E+00  0.0000E+00    0.0000E+00

         WATER    CONNECTED LAKE   CHANGE       PERCENT
 LAKE     USE         INFLUX       IN VOL.    DISCREPANCY
   1   0.0000E+00   0.0000E+00   0.0000E+00      0.000
 --------------------------------------------------------------------------------

 UBDSV3 SAVING "           GW ET" ON UNIT  61 AT TIME STEP 15, STRESS PERIOD 2
 UBDSV3 SAVING "    UZF RECHARGE" ON UNIT  61 AT TIME STEP 15, STRESS PERIOD 2
 UBDSV3 SAVING " SURFACE LEAKAGE" ON UNIT  61 AT TIME STEP 15, STRESS PERIOD 2


UNSATURATED ZONE PACKAGE VOLUMETRIC BUDGET FOR  TIME STEP    15 STRESS PERIOD    2
  ------------------------------------------------------------------------------



     CUMULATIVE VOLUMES      L**3       RATES FOR THIS TIME STEP      L**3/T
     ------------------                 ------------------------

           IN:                                      IN:
           ---                                      ---
        INFILTRATION =   179873460.0000          INFILTRATION =          67.6000

          OUT:                                     OUT:
          ----                                     ----
              UZF ET =   342389970.1440                UZF ET =         128.5233
        UZF RECHARGE =   105142523.2112          UZF RECHARGE =          33.4508

            IN - OUT =  -267659033.3552              IN - OUT =         -94.3741

          STORAGE:                                 STORAGE:
          --------                                 --------
      STORAGE CHANGE =  -267605443.4660        STORAGE CHANGE =         -94.3573

 PERCENT DISCREPANCY IS DIFFERENCE BETWEEN IN-OUT MINUS CHANGE IN STORAGE
 DIVIDED BY THE AVERAGE OF IN AND OUT TIMES 100

 PERCENT DISCREPANCY =          -0.00     PERCENT DISCREPANCY =          -0.01






1
              HEAD IN LAYER 1 AT END OF TIME STEP 15 IN STRESS PERIOD 2
  ---------------------------------------------------------------------------

           1       2       3       4       5       6       7       8       9      10
 ...................................................................................
   1  6999.00 6999.00 6999.00 6999.00 6999.00 6999.00 6999.00 6999.00 6999.00 6999.00
   2  6999.00 6999.00 6999.00 6999.00 6999.00 6999.00 6999.00 6999.00 6999.00 6999.00
   3  6999.00 6999.00 6999.00 6999.00 6999.00 6999.00 6999.00 6999.00 6999.00 6999.00
   4  6999.00 6999.00 6999.00 6999.00 6999.00 6999.00 6999.00 6999.00 6999.00 6999.00
   5  6999.00 6999.00 6999.00 6999.00 6999.00 6999.00 6999.00 6999.00 6999.00 6999.00
   6  6999.00 6999.00 6999.00 6999.00 6999.00 6999.00 6999.00 6999.00 6999.00 6999.00
   7  6999.00 6999.00 6999.00 6999.00 6999.00 6999.00 6999.00 6999.00 6999.00 6999.00
   8  6999.00 6999.00 6999.00 6999.00 6999.00 6999.00 6999.00 6999.00 6999.00 6999.00
   9  6999.00 6999.00 6999.00 6999.00 6999.00 6999.00 6999.00 6999.00 6999.00 6999.00
  10  6999.00 6999.00 6999.00 6999.00 6999.00 6999.00 6999.00 6999.00 6999.00 6999.00
  11  6999.00 6999.00 6999.00 6999.00 6999.00 6999.00 6999.00 6999.00 6999.00 6999.00
  12  6999.00 6999.00 6999.00 6999.00 6999.00 6999.00 6999.00 6999.00 6999.00 6999.00
  13  6999.00 6999.00 6999.00 6999.00 6999.00 6999.00 6999.00 6999.00 6999.00 6999.00
  14  6999.00 6999.00 6999.00 6999.00 6999.00 6999.00 6999.00 6999.00 6999.00 6999.00
  15  6999.00 6999.00 6999.00 6999.00 6999.00 6999.00 6999.00 6999.00 6999.00 6999.00
1
              HEAD IN LAYER 2 AT END OF TIME STEP 15 IN STRESS PERIOD 2
  ---------------------------------------------------------------------------

           1       2       3       4       5       6       7       8       9      10
 ...................................................................................
   1  1090.83 1085.46 6999.00 6999.00 6999.00 6999.00 6999.00 6999.00 6999.00 6999.00
   2  1085.81 1079.60 1072.73 6999.00 6999.00 1062.80 1062.80 1062.37 6999.00 6999.00
   3  6999.00 1069.22 1065.45 1061.55 1061.77 1062.19 1062.66 1061.65 6999.00 6999.00
   4  1057.16 1059.63 1058.65 1055.33 1054.16 1053.35 1054.94 1058.96 1057.55 6999.00
   5  1052.96 1052.52 1051.45 1049.56 1049.33 1049.74 1049.86 1051.60 1054.93 1057.15
   6  1048.79 1047.23 1045.67 1044.06 1044.31 1045.80 1047.18 1049.37 1052.07 1056.04
   7  1045.77 1042.39 1040.68 1039.26 1039.88 1041.79 1043.90 1046.16 1048.47 6999.00
   8  6999.00 1037.28 1036.08 1034.88 1035.62 1037.65 1039.51 1042.80 1043.59 6999.00
   9  6999.00 1031.62 1031.18 1030.46 1031.40 1033.63 1034.84 1037.02 1038.69 6999.00
  10  6999.00 1025.99 1026.28 1026.41 1027.68 1029.77 1031.00 1032.91 1034.81 1035.20
  11  6999.00 1019.26 1020.33 1022.78 1024.76 1026.99 1028.67 1030.84 1033.59 6999.00
  12  1003.03 1009.44 1013.54 1017.93 1021.50 1024.90 1027.43 1030.71 1034.46 6999.00
  13   995.61 1000.54 1007.29 1013.34 1018.82 1024.28 1029.08 1034.13 1036.67 6999.00
  14  6999.00 1006.52 1009.77 1014.56 1019.58 1024.50 1029.73 1035.16 1039.37 6999.00
  15  6999.00 6999.00 1013.40 1016.26 1020.02 1023.45 6999.00 6999.00 6999.00 6999.00

 HEAD WILL BE SAVED ON UNIT   58 AT END OF TIME STEP   15, STRESS PERIOD    2
1
  VOLUMETRIC BUDGET FOR ENTIRE MODEL AT END OF TIME STEP   15, STRESS PERIOD   2
  ------------------------------------------------------------------------------

     CUMULATIVE VOLUMES      L**3       RATES FOR THIS TIME STEP      L**3/T
     ------------------                 ------------------------

           IN:                                      IN:
           ---                                      ---
             STORAGE     =     7906766.5000               STORAGE     =           0.7925
       CONSTANT HEAD     =           0.0000         CONSTANT HEAD     =           0.0000
               WELLS     =           0.0000                 WELLS     =           0.0000
     HEAD DEP BOUNDS     =     1131621.0000       HEAD DEP BOUNDS     =           0.2141
      STREAM LEAKAGE     =   252996656.0000        STREAM LEAKAGE     =          46.3647
       LAKE  SEEPAGE     =           0.0000         LAKE  SEEPAGE     =           0.0000
        UZF RECHARGE     =   105142520.0000          UZF RECHARGE     =          33.4508
               GW ET     =           0.0000                 GW ET     =           0.0000
     SURFACE LEAKAGE     =           0.0000       SURFACE LEAKAGE     =           0.0000

                TOTAL IN =   367177568.0000                  TOTAL IN =          80.8221

          OUT:                                     OUT:
          ----                                     ----
             STORAGE     =   102396320.0000               STORAGE     =          31.1503
       CONSTANT HEAD     =           0.0000         CONSTANT HEAD     =           0.0000
               WELLS     =   105120000.0000                 WELLS     =          20.0000
     HEAD DEP BOUNDS     =     1509948.0000       HEAD DEP BOUNDS     =           0.2892
      STREAM LEAKAGE     =    93094592.0000        STREAM LEAKAGE     =          18.7541
       LAKE  SEEPAGE     =           0.0000         LAKE  SEEPAGE     =           0.0000
        UZF RECHARGE     =           0.0000          UZF RECHARGE     =           0.0000
               GW ET     =    65050344.0000                 GW ET     =          10.6178
     SURFACE LEAKAGE     =           0.0000       SURFACE LEAKAGE     =           0.0000

               TOTAL OUT =   367171200.0000                 TOTAL OUT =          80.8113

                IN - OUT =        6368.0000                  IN - OUT =       1.0796E-02

     PERCENT DISCREPANCY =           0.00         PERCENT DISCREPANCY =           0.01






         TIME SUMMARY AT END OF TIME STEP   15 IN STRESS PERIOD    2
                    SECONDS     MINUTES      HOURS       DAYS        YEARS
                    -----------------------------------------------------------
   TIME STEP LENGTH 1.75200E+05  2920.0      48.667      2.0278     5.55175E-03
 STRESS PERIOD TIME 2.62800E+06  43800.      730.00      30.417     8.32763E-02
         TOTAL TIME 5.25600E+06  87600.      1460.0      60.833     0.16655    
1
1
                            STRESS PERIOD NO.    3, LENGTH =   2628000.    
                            -----------------------------------------------

                              NUMBER OF TIME STEPS =    15

                               MULTIPLIER FOR DELT =     1.000

                            INITIAL TIME STEP SIZE =   175200.0    

 WELL NO.  LAYER   ROW   COL   STRESS RATE         
 --------------------------------------------------
      1      2      6      4      -1.000    
      2      2      6      5      -1.000    
      3      2      7      4      -1.000    
      4      2      7      5      -1.000    
      5      2      8      4      -1.000    
      6      2      8      5      -1.000    
      7      2      9      4      -1.000    
      8      2      9      5      -1.000    
      9      2     10      4      -1.000    
     10      2     10      5      -1.000    

     10 WELLS

 REUSING NON-PARAMETER GHB CELLS FROM LAST STRESS PERIOD

      2 GHB CELLS

 REUSING STREAM SEGMENT DATA FROM LAST STRESS PERIOD



            AREAL INFILTRATION RATE
 READING ON UNIT   19 WITH FORMAT: (10F4.0)            

            1           2           3           4           5           6           7           8           9          10
 ........................................................................................................................
   1   1.0000E-08  2.0000E-08   0.000       0.000       0.000       0.000       0.000       0.000       0.000       0.000    
   2   2.0000E-08  1.0000E-08  2.0000E-08   0.000       0.000      8.0000E-08  8.0000E-08  5.0000E-08   0.000       0.000    
   3    0.000      5.0000E-08  1.0000E-08  1.0000E-08  8.0000E-08  8.0000E-08  5.0000E-08  5.0000E-08   0.000       0.000    
   4   8.0000E-08  5.0000E-08  1.0000E-08  1.0000E-08  1.0000E-08  1.0000E-08  1.0000E-08  1.0000E-08  2.0000E-08   0.000    
   5   8.0000E-08  5.0000E-08  1.0000E-08  1.0000E-08  1.0000E-08  1.0000E-08  1.0000E-08  1.0000E-08  1.0000E-08  1.0000E-08
   6   8.0000E-08  5.0000E-08  5.0000E-08  2.0000E-08  2.0000E-08  1.0000E-08  1.0000E-08  1.0000E-08  1.0000E-08  5.0000E-08
   7   8.0000E-08  5.0000E-08  5.0000E-08  2.0000E-08  2.0000E-08  1.0000E-08  1.0000E-08  2.0000E-08  2.0000E-08   0.000    
   8    0.000      5.0000E-08  5.0000E-08  2.0000E-08  2.0000E-08  1.0000E-08  1.0000E-08  2.0000E-08  5.0000E-08   0.000    
   9    0.000      5.0000E-08  5.0000E-08  2.0000E-08  2.0000E-08  1.0000E-08  1.0000E-08  2.0000E-08  5.0000E-08   0.000    
  10    0.000      5.0000E-08  5.0000E-08  2.0000E-08  2.0000E-08  1.0000E-08  1.0000E-08  2.0000E-08  5.0000E-08  8.0000E-08
  11    0.000      1.0000E-08  1.0000E-08  1.0000E-08  1.0000E-08  1.0000E-08  1.0000E-08  2.0000E-08  5.0000E-08   0.000    
  12   1.0000E-08  1.0000E-08  1.0000E-08  1.0000E-08  1.0000E-08  1.0000E-08  1.0000E-08  1.0000E-08  2.0000E-08   0.000    
  13   1.0000E-08  1.0000E-08  2.0000E-08  2.0000E-08  2.0000E-08  2.0000E-08  2.0000E-08  1.0000E-08  1.0000E-08   0.000    
  14    0.000      2.0000E-08  5.0000E-08  5.0000E-08  5.0000E-08  5.0000E-08  5.0000E-08  2.0000E-08  1.0000E-08   0.000    
  15    0.000       0.000      8.0000E-08  8.0000E-08  8.0000E-08  8.0000E-08   0.000       0.000       0.000       0.000    

USING ET RATE FROM PREVIOUS STRESS PERIOD. CURRENT PERIOD IS:       3

 USING ET EXTINCTION DEPTH FROM PREVIOUS STRESS PERIOD. CURRENT PERIOD IS:       3

 USING EXTINCTION WATER CONTENT FROM PREVIOUS STRESS PERIOD. CURRENT PERIOD IS:       3




 If any subsequent steady-state stress periods, min. and max. stages for each lake will be read in Record 9a.




 REUSING LAKE CONFIGURATION DATA FROM LAST STRESS PERIOD


 LAKE       PRECIP     EVAP     RUNOFF   WITHDRAW   BOTTOM     AREA
----------------------------------------------------------------------
   1     0.000E+00 4.000E-08 0.000E+00  0.000E+00 1.074E+03 2.500E+07




         C               INTERFACE CONDUCTANCES BETWEEN LAKE AND AQUIFER CELLS
   L     O          (IF TYPE = 6, CONDUCTANCE (L^2/T) IS BETWEEN AQUIFER CELL AND OVERLYING LAKE CELL.)
   A     L  L  T    (IF TYPE = 1 TO 4, CONDUCTANCES ARE PER UNIT SATURATED THICKNESS (L/T).)
   Y  R  U  A  Y
   E  O  M  K  P                        LAKEBED      C O N D U C T A N C E S
   R  W  N  E  E     DELTA Y   DELTA X  LEAKANCE   LAKEBED   AQUIFER  COMBINED
 _______________________________________________________________________________
   1  4  4  1  2    5.00E+03  5.00E+03  5.00E-02  2.50E+02  6.00E-03  6.00E-03
   1  3  5  1  3    5.00E+03  5.00E+03  5.00E-02  2.50E+02  1.20E-03  1.20E-03
   2  4  5  1  6    5.00E+03  5.00E+03  5.00E-02  1.25E+06  9.42E+00  9.42E+00
   1  5  5  1  4    5.00E+03  5.00E+03  5.00E-02  2.50E+02  6.00E-03  6.00E-03
   1  4  6  1  1    5.00E+03  5.00E+03  5.00E-02  2.50E+02  6.00E-03  6.00E-03
 
      DEAD POOL STORAGE FOR LAKE    1 BELOW SEGMENT   10 IS EQUAL TO     0.1200000000E+09
 
      LAKE     INFLOWING STREAM SEGMENT
         1                  9

 MAXIMUM NUMBER OF STREAMS INFLOWING TO A LAKE IS    1

      LAKE     OUTFLOWING STREAM SEGMENT
         1                 10

 MAXIMUM NUMBER OF STREAMS OUTFLOWING FROM A LAKE IS    1

 
 SOLVING FOR HEAD 
                                                   Max.-Head-Change                         Max.-Flux-Residual
  Residual-Control   Outer-Iter.   Inner-Iter.     Column Row Layer    Maximum-Head-Change  Column Row Layer    Maximum-Flux-Residual          L2-NORM 
          0                 1           2            10   10     2       0.4717051909E-01       4   10    2         0.1192035017E+01      0.4881055272E+01
          0                 2           2             4   10     2      -0.1990194155E-02       4   10    2        -0.5654920302E-01      0.1771392887E+00
          0                 3           1             7   12     2       0.3609203434E-04       3   12    2         0.1059232698E-02      0.3332906739E-02

    ------------------------------------------------
       NWT REQUIRED            3 OUTER ITERATIONS 
       AND A TOTAL OF          5 INNER ITERATIONS.
    ------------------------------------------------

 OUTPUT CONTROL FOR STRESS PERIOD    3   TIME STEP    1
    PRINT BUDGET
    SAVE BUDGET

            WELLS   PERIOD    3   STEP   1
 WELL      1   LAYER   2   ROW     6   COL     4   RATE    -1.00000    
 WELL      2   LAYER   2   ROW     6   COL     5   RATE    -1.00000    
 WELL      3   LAYER   2   ROW     7   COL     4   RATE    -1.00000    
 WELL      4   LAYER   2   ROW     7   COL     5   RATE    -1.00000    
 WELL      5   LAYER   2   ROW     8   COL     4   RATE    -1.00000    
 WELL      6   LAYER   2   ROW     8   COL     5   RATE    -1.00000    
 WELL      7   LAYER   2   ROW     9   COL     4   RATE    -1.00000    
 WELL      8   LAYER   2   ROW     9   COL     5   RATE    -1.00000    
 WELL      9   LAYER   2   ROW    10   COL     4   RATE    -1.00000    
 WELL     10   LAYER   2   ROW    10   COL     5   RATE    -1.00000    

  HEAD DEP BOUNDS   PERIOD    3   STEP     1
 BOUNDARY      1   LAYER   2   ROW    13   COL     1   RATE   -0.289313    
 BOUNDARY      2   LAYER   2   ROW    14   COL     9   RATE    0.214090    



 STREAM LISTING     PERIOD      3   STEP        1

 LAYER ROW COL. STREAM  RCH.  FLOW INTO     FLOW TO   FLOW OUT OF   OVRLND.     DIRECT     STREAM       STREAM     STREAM     STREAM   STREAMBED  STREAMBED
                SEG.NO.  NO.  STRM. RCH.    AQUIFER    STRM. RCH.    RUNOFF     PRECIP       ET          HEAD       DEPTH      WIDTH   CONDCTNC.   GRADIENT

   2    1    1     1     1    2.5000E+01  1.9554E+00   2.3045E+01  0.000E+00  0.000E+00  0.000E+00  1.09421E+03  1.165E+00  1.287E+01  5.790E-01  1.126E+00
   2    2    2     1     2    2.3045E+01  3.5443E+00   1.9500E+01  0.000E+00  0.000E+00  0.000E+00  1.08918E+03  1.122E+00  1.228E+01  8.599E-01  1.374E+00
   2    3    3     1     3    1.9500E+01  2.7881E+00   1.6712E+01  0.000E+00  0.000E+00  0.000E+00  1.08349E+03  1.069E+00  1.142E+01  6.852E-01  1.356E+00
   2    3    4     1     4    1.6712E+01  2.3622E+00   1.4350E+01  0.000E+00  0.000E+00  0.000E+00  1.07843E+03  1.022E+00  1.058E+01  5.873E-01  1.341E+00
   2    4    5     2     1    4.3500E+00  2.6064E+00   1.7436E+00  0.000E+00  0.000E+00  0.000E+00  1.07228E+03  3.415E-01  1.200E+01  7.800E-01  1.114E+00
   2    5    6     2     2    1.7436E+00  1.7436E+00   0.0000E+00  0.000E+00  0.000E+00  0.000E+00  1.06656E+03  5.498E-02  1.200E+01  6.000E-01  1.018E+00
   2    6    6     2     3    0.0000E+00  0.0000E+00   0.0000E+00  0.000E+00  0.000E+00  0.000E+00  1.06179E+03  0.000E+00  1.200E+01  6.000E-01  1.000E+00
   2    7    6     2     4    0.0000E+00  0.0000E+00   0.0000E+00  0.000E+00  0.000E+00  0.000E+00  1.05708E+03  0.000E+00  1.200E+01  6.000E-01  1.000E+00
   2    8    6     2     5    0.0000E+00  0.0000E+00   0.0000E+00  0.000E+00  0.000E+00  0.000E+00  1.05236E+03  0.000E+00  1.200E+01  6.000E-01  1.000E+00
   2    3    5     3     1    1.0000E+01  2.8252E+00   7.1748E+00  0.000E+00  0.000E+00  0.000E+00  1.07555E+03  1.909E+00  9.636E+00  7.227E-01  1.955E+00
   2    3    6     3     2    7.1748E+00  2.4905E+00   4.6843E+00  0.000E+00  0.000E+00  0.000E+00  1.07264E+03  1.727E+00  8.909E+00  6.682E-01  1.864E+00
   2    3    7     3     3    4.6843E+00  1.9718E+00   2.7125E+00  0.000E+00  0.000E+00  0.000E+00  1.06987E+03  1.555E+00  8.218E+00  5.547E-01  1.777E+00
   2    4    8     3     4    2.7125E+00  2.2567E+00   4.5579E-01  0.000E+00  0.000E+00  0.000E+00  1.06682E+03  1.364E+00  7.455E+00  6.709E-01  1.682E+00
   2    5    8     3     5    4.5579E-01  4.5579E-01   0.0000E+00  0.000E+00  0.000E+00  0.000E+00  1.06362E+03  0.000E+00  6.655E+00  4.991E-01  1.582E+00
   2    6    8     3     6    0.0000E+00  0.0000E+00   0.0000E+00  0.000E+00  0.000E+00  0.000E+00  1.06055E+03  0.000E+00  6.145E+00  1.844E-01  1.000E+00
   2    5   10     4     1    1.0000E+01  9.0525E-01   9.0947E+00  0.000E+00  0.000E+00  0.000E+00  1.07835E+03  6.210E-01  1.000E+01  2.500E-01  1.207E+00
   2    5    9     4     2    9.0947E+00  1.7835E+00   7.3113E+00  0.000E+00  0.000E+00  0.000E+00  1.07148E+03  5.670E-01  1.000E+01  5.000E-01  1.189E+00
   2    6    8     4     3    7.3113E+00  1.2257E+00   6.0855E+00  0.000E+00  0.000E+00  0.000E+00  1.06368E+03  5.021E-01  1.000E+01  3.500E-01  1.167E+00
   2    6    8     5     1    6.0855E+00  1.4716E+00   4.6139E+00  0.000E+00  0.000E+00  0.000E+00  1.05854E+03  5.396E-01  1.039E+01  4.158E-01  1.180E+00
   2    7    7     5     2    4.6139E+00  1.4897E+00   3.1242E+00  0.000E+00  0.000E+00  0.000E+00  1.05398E+03  4.817E-01  8.557E+00  4.279E-01  1.161E+00
   2    8    7     5     3    3.1242E+00  8.2855E-01   2.2957E+00  0.000E+00  0.000E+00  0.000E+00  1.04968E+03  4.253E-01  6.911E+00  2.419E-01  1.142E+00
   2    8    6     5     4    2.2957E+00  4.9455E-01   1.8011E+00  0.000E+00  0.000E+00  0.000E+00  1.04664E+03  3.856E-01  5.843E+00  1.461E-01  1.129E+00
   2    9    6     6     1    1.8011E+00  1.8011E+00   0.0000E+00  0.000E+00  0.000E+00  0.000E+00  1.04278E+03  5.669E-02  1.200E+01  6.000E-01  1.019E+00
   2   10    7     6     2    0.0000E+00  0.0000E+00   0.0000E+00  0.000E+00  0.000E+00  0.000E+00  1.03818E+03  0.000E+00  1.200E+01  6.000E-01  1.000E+00
   2   11    7     6     3    0.0000E+00  0.0000E+00   0.0000E+00  0.000E+00  0.000E+00  0.000E+00  1.03364E+03  0.000E+00  1.200E+01  6.000E-01  1.000E+00
   2   12    7     6     4    0.0000E+00  0.0000E+00   0.0000E+00  0.000E+00  0.000E+00  0.000E+00  1.02909E+03  0.000E+00  1.200E+01  6.000E-01  5.512E-01
   2   13    7     6     5    0.0000E+00 -7.3801E-01   7.3801E-01  0.000E+00  0.000E+00  0.000E+00  1.02601E+03  9.732E-02  1.200E+01  2.400E-01 -1.025E+00
   2   14    9     7     1    1.5000E+02  2.7872E+00   1.4721E+02  0.000E+00  0.000E+00  0.000E+00  1.03986E+03  2.284E+00  5.528E+01  5.591E+00  1.662E-01
   2   13    8     7     2    1.4721E+02  3.8963E+00   1.4332E+02  0.000E+00  0.000E+00  0.000E+00  1.03477E+03  2.266E+00  5.520E+01  6.141E+00  2.115E-01
   2   13    7     7     3    1.4332E+02  3.2580E+00   1.4006E+02  0.000E+00  0.000E+00  0.000E+00  1.02967E+03  2.247E+00  5.511E+01  5.573E+00  1.949E-01
   2   13    6     8     1    1.4080E+02  1.3706E+00   1.3943E+02  0.000E+00  0.000E+00  0.000E+00  1.02462E+03  2.746E+00  3.981E+01  4.057E+00  1.126E-01
   2   13    5     8     2    1.3943E+02 -1.8499E+00   1.4128E+02  0.000E+00  0.000E+00  0.000E+00  1.01837E+03  2.747E+00  3.984E+01  4.060E+00 -1.519E-01
   2   13    4     8     3    1.4128E+02 -4.8926E+00   1.4617E+02  0.000E+00  0.000E+00  0.000E+00  1.01215E+03  2.772E+00  4.019E+01  4.096E+00 -3.982E-01
   2   13    3     8     4    1.4617E+02 -5.6542E+00   1.5182E+02  0.000E+00  0.000E+00  0.000E+00  1.00593E+03  2.810E+00  4.074E+01  4.152E+00 -4.540E-01
   2   13    2     8     5    1.5182E+02 -3.4654E+00   1.5529E+02  0.000E+00  0.000E+00  0.000E+00  9.99717E+02  2.842E+00  4.120E+01  4.199E+00 -2.751E-01
   2   13    1     8     6    1.5529E+02 -2.2252E+00   1.5751E+02  0.000E+00  0.000E+00  0.000E+00  9.94736E+02  2.861E+00  4.149E+01  2.537E+00 -2.924E-01
   2    4    5     9     1    0.0000E+00  0.0000E+00   0.0000E+00  0.000E+00  0.000E+00  0.000E+00  1.06000E+03  0.000E+00  2.000E+01  2.000E-03  1.000E+00
   2    4    5    10     1    0.0000E+00  0.0000E+00   0.0000E+00  0.000E+00  0.000E+00  0.000E+00  1.08000E+03  0.000E+00  2.000E+01  2.000E-03  1.000E+00



 ..........LAKE  1 IS DRY..........

     SECTIONS OF THE LAKE BOTTOM HAVE BECOME DRY.  THE DRYSECTIONS
     LIE ABOVE THE FOLLOWING  1 AQUIFER CELLS (LAYER,ROW,COLUMN):
     (  2,  4,  5)  (

 PERIOD     3     TIME STEP     1     TIME STEP LENGTH  1.7520E+05
 PERIOD TIME  1.7520E+05     TOTAL SIMULATION TIME  5.4312E+06


                 HYDROLOGIC BUDGET SUMMARIES FOR SIMULATED LAKES
     (ALL FLUID FLUXES ARE VOLUMES ADDED TO THE LAKE DURING PRESENT TIME STEP)
     ----------------------------------------------------------------------------------------
 LAKE    STAGE         VOLUME     VOL. CHANGE      PRECIP     EVAPORATION    SPECIFIED RUNOFF     COMPUTED RUNOFF    TOTAL RUNOFF
   1  1.074500E+03  0.000000E+00  0.000000E+00  0.000000E+00  0.000000E+00   0.000000E+00          0.000000E+00      0.000000E+00

            GROUND WATER            SURFACE WATER        WATER          UZF INFIL.
 LAKE    INFLOW     OUTFLOW      INFLOW     OUTFLOW       USE        FROM LAKE
   1  0.0000E+00  0.0000E+00  0.0000E+00  0.0000E+00  0.0000E+00       0.0000E+00

      CONNECTED LAKE   TIME-STEP         STAGE-CHANGE          PERCENT
 LAKE    INFLUX      SURFACE AREA   TIME STEP  CUMULATIVE    DISCREPANCY
   1   0.0000E+00     0.0000E+00   0.0000E+00  0.0000E+00       0.000
 --------------------------------------------------------------------------------



            CUMULATIVE HYDROLOGIC BUDGET SUMMARIES FOR SIMULATED LAKES
     (ALL FLUID FLUXES ARE SUMS OF VOLUMES ADDED TO THE LAKE SINCE INITIAL TIME)
     ---------------------------------------------------------------------------
 LAKE       PRECIP       EVAP     SPECIFIED RUNOFF   COMPUTED RUNOFF   TOTAL RUNOFF
   1     0.0000E+00  0.0000E+00       0.0000E+00       0.0000E+00       0.0000E+00

            GROUND WATER            SURFACE WATER       UZF INFIL.
 LAKE    INFLOW     OUTFLOW      INFLOW     OUTFLOW     FROM LAKE
   1  0.0000E+00  0.0000E+00  0.0000E+00  0.0000E+00    0.0000E+00

         WATER    CONNECTED LAKE   CHANGE       PERCENT
 LAKE     USE         INFLUX       IN VOL.    DISCREPANCY
   1   0.0000E+00   0.0000E+00   0.0000E+00      0.000
 --------------------------------------------------------------------------------

 UBDSV3 SAVING "           GW ET" ON UNIT  61 AT TIME STEP 1, STRESS PERIOD 3
 UBDSV3 SAVING "    UZF RECHARGE" ON UNIT  61 AT TIME STEP 1, STRESS PERIOD 3
 UBDSV3 SAVING " SURFACE LEAKAGE" ON UNIT  61 AT TIME STEP 1, STRESS PERIOD 3


UNSATURATED ZONE PACKAGE VOLUMETRIC BUDGET FOR  TIME STEP     1 STRESS PERIOD    3
  ------------------------------------------------------------------------------



     CUMULATIVE VOLUMES      L**3       RATES FOR THIS TIME STEP      L**3/T
     ------------------                 ------------------------

           IN:                                      IN:
           ---                                      ---
        INFILTRATION =   194677860.0000          INFILTRATION =          84.5000

          OUT:                                     OUT:
          ----                                     ----
              UZF ET =   364613473.6187                UZF ET =         126.8465
        UZF RECHARGE =   111020713.4866          UZF RECHARGE =          33.5513

            IN - OUT =  -280956327.1052              IN - OUT =         -75.8978

          STORAGE:                                 STORAGE:
          --------                                 --------
      STORAGE CHANGE =  -280899258.0369        STORAGE CHANGE =         -75.8779

 PERCENT DISCREPANCY IS DIFFERENCE BETWEEN IN-OUT MINUS CHANGE IN STORAGE
 DIVIDED BY THE AVERAGE OF IN AND OUT TIMES 100

 PERCENT DISCREPANCY =          -0.00     PERCENT DISCREPANCY =          -0.01






1
  VOLUMETRIC BUDGET FOR ENTIRE MODEL AT END OF TIME STEP    1, STRESS PERIOD   3
  ------------------------------------------------------------------------------

     CUMULATIVE VOLUMES      L**3       RATES FOR THIS TIME STEP      L**3/T
     ------------------                 ------------------------

           IN:                                      IN:
           ---                                      ---
             STORAGE     =     7987972.5000               STORAGE     =           0.4635
       CONSTANT HEAD     =           0.0000         CONSTANT HEAD     =           0.0000
               WELLS     =           0.0000                 WELLS     =           0.0000
     HEAD DEP BOUNDS     =     1169129.6250       HEAD DEP BOUNDS     =           0.2141
      STREAM LEAKAGE     =   261110528.0000        STREAM LEAKAGE     =          46.3120
       LAKE  SEEPAGE     =           0.0000         LAKE  SEEPAGE     =           0.0000
        UZF RECHARGE     =   111020712.0000          UZF RECHARGE     =          33.5513
               GW ET     =           0.0000                 GW ET     =           0.0000
     SURFACE LEAKAGE     =           0.0000       SURFACE LEAKAGE     =           0.0000

                TOTAL IN =   381288320.0000                  TOTAL IN =          80.5409

          OUT:                                     OUT:
          ----                                     ----
             STORAGE     =   109532288.0000               STORAGE     =          40.7304
       CONSTANT HEAD     =           0.0000         CONSTANT HEAD     =           0.0000
               WELLS     =   106872000.0000                 WELLS     =          10.0000
     HEAD DEP BOUNDS     =     1560635.6250       HEAD DEP BOUNDS     =           0.2893
      STREAM LEAKAGE     =    96392768.0000        STREAM LEAKAGE     =          18.8252
       LAKE  SEEPAGE     =           0.0000         LAKE  SEEPAGE     =           0.0000
        UZF RECHARGE     =           0.0000          UZF RECHARGE     =           0.0000
               GW ET     =    66924288.0000                 GW ET     =          10.6960
     SURFACE LEAKAGE     =           0.0000       SURFACE LEAKAGE     =           0.0000

               TOTAL OUT =   381281984.0000                 TOTAL OUT =          80.5409

                IN - OUT =        6336.0000                  IN - OUT =      -2.2888E-05

     PERCENT DISCREPANCY =           0.00         PERCENT DISCREPANCY =          -0.00






         TIME SUMMARY AT END OF TIME STEP    1 IN STRESS PERIOD    3
                    SECONDS     MINUTES      HOURS       DAYS        YEARS
                    -----------------------------------------------------------
   TIME STEP LENGTH 1.75200E+05  2920.0      48.667      2.0278     5.55175E-03
 STRESS PERIOD TIME 1.75200E+05  2920.0      48.667      2.0278     5.55175E-03
         TOTAL TIME 5.43120E+06  90520.      1508.7      62.861     0.17210    
1
 
 SOLVING FOR HEAD 
                                                   Max.-Head-Change                         Max.-Flux-Residual
  Residual-Control   Outer-Iter.   Inner-Iter.     Column Row Layer    Maximum-Head-Change  Column Row Layer    Maximum-Flux-Residual          L2-NORM 
          0                 1           2            10   10     2       0.4716614735E-01       4    9    2         0.1163240300E+01      0.4730209149E+01
          0                 2           2             4    9     2      -0.1943156602E-02       4   10    2        -0.5398798268E-01      0.1707400856E+00
          0                 3           1             7   11     2       0.3871172087E-04       3   12    2         0.1137833577E-02      0.3469094701E-02

    ------------------------------------------------
       NWT REQUIRED            3 OUTER ITERATIONS 
       AND A TOTAL OF          5 INNER ITERATIONS.
    ------------------------------------------------

 NO OUTPUT CONTROL FOR STRESS PERIOD    3   TIME STEP    2
 ..........LAKE  1 IS DRY..........
 
 SOLVING FOR HEAD 
                                                   Max.-Head-Change                         Max.-Flux-Residual
  Residual-Control   Outer-Iter.   Inner-Iter.     Column Row Layer    Maximum-Head-Change  Column Row Layer    Maximum-Flux-Residual          L2-NORM 
          0                 1           2            10   10     2       0.4716078572E-01       4    9    2         0.1146545587E+01      0.4568628458E+01
          0                 2           2             4    9     2      -0.1916463396E-02       4    9    2        -0.5271710710E-01      0.1585059594E+00
          0                 3           1             3   12     2       0.2811713610E-04       3   12    2         0.8443204415E-03      0.2225020272E-02

    ------------------------------------------------
       NWT REQUIRED            3 OUTER ITERATIONS 
       AND A TOTAL OF          5 INNER ITERATIONS.
    ------------------------------------------------

 NO OUTPUT CONTROL FOR STRESS PERIOD    3   TIME STEP    3
 ..........LAKE  1 IS DRY..........
 
 SOLVING FOR HEAD 
                                                   Max.-Head-Change                         Max.-Flux-Residual
  Residual-Control   Outer-Iter.   Inner-Iter.     Column Row Layer    Maximum-Head-Change  Column Row Layer    Maximum-Flux-Residual          L2-NORM 
          0                 1           2            10   10     2       0.4715443484E-01       4    9    2         0.1127577693E+01      0.4548748636E+01
          0                 2           2             4    9     2      -0.1884911099E-02       4    9    2        -0.5194292966E-01      0.1614084549E+00
          0                 3           1             2    2     2       0.2737934966E-04       3   12    2         0.7983381693E-03      0.2318069128E-02

    ------------------------------------------------
       NWT REQUIRED            3 OUTER ITERATIONS 
       AND A TOTAL OF          5 INNER ITERATIONS.
    ------------------------------------------------

 NO OUTPUT CONTROL FOR STRESS PERIOD    3   TIME STEP    4
 ..........LAKE  1 IS DRY..........
 
 SOLVING FOR HEAD 
                                                   Max.-Head-Change                         Max.-Flux-Residual
  Residual-Control   Outer-Iter.   Inner-Iter.     Column Row Layer    Maximum-Head-Change  Column Row Layer    Maximum-Flux-Residual          L2-NORM 
          0                 1           2            10   10     2       0.4714701445E-01       4    9    2         0.1107062428E+01      0.4441267034E+01
          0                 2           2             4    9     2      -0.1851960324E-02       4    9    2        -0.5109517143E-01      0.1581105644E+00
          0                 3           1             2    2     2       0.2960515457E-04       2    2    2         0.8618850388E-03      0.2280555279E-02

    ------------------------------------------------
       NWT REQUIRED            3 OUTER ITERATIONS 
       AND A TOTAL OF          5 INNER ITERATIONS.
    ------------------------------------------------

 OUTPUT CONTROL FOR STRESS PERIOD    3   TIME STEP    5
    PRINT BUDGET
    SAVE BUDGET

            WELLS   PERIOD    3   STEP   5
 WELL      1   LAYER   2   ROW     6   COL     4   RATE    -1.00000    
 WELL      2   LAYER   2   ROW     6   COL     5   RATE    -1.00000    
 WELL      3   LAYER   2   ROW     7   COL     4   RATE    -1.00000    
 WELL      4   LAYER   2   ROW     7   COL     5   RATE    -1.00000    
 WELL      5   LAYER   2   ROW     8   COL     4   RATE    -1.00000    
 WELL      6   LAYER   2   ROW     8   COL     5   RATE    -1.00000    
 WELL      7   LAYER   2   ROW     9   COL     4   RATE    -1.00000    
 WELL      8   LAYER   2   ROW     9   COL     5   RATE    -1.00000    
 WELL      9   LAYER   2   ROW    10   COL     4   RATE    -1.00000    
 WELL     10   LAYER   2   ROW    10   COL     5   RATE    -1.00000    

  HEAD DEP BOUNDS   PERIOD    3   STEP     5
 BOUNDARY      1   LAYER   2   ROW    13   COL     1   RATE   -0.289850    
 BOUNDARY      2   LAYER   2   ROW    14   COL     9   RATE    0.214364    



 STREAM LISTING     PERIOD      3   STEP        5

 LAYER ROW COL. STREAM  RCH.  FLOW INTO     FLOW TO   FLOW OUT OF   OVRLND.     DIRECT     STREAM       STREAM     STREAM     STREAM   STREAMBED  STREAMBED
                SEG.NO.  NO.  STRM. RCH.    AQUIFER    STRM. RCH.    RUNOFF     PRECIP       ET          HEAD       DEPTH      WIDTH   CONDCTNC.   GRADIENT

   2    1    1     1     1    2.7000E+01  2.0322E+00   2.4968E+01  0.000E+00  0.000E+00  0.000E+00  1.09424E+03  1.195E+00  1.326E+01  5.965E-01  1.136E+00
   2    2    2     1     2    2.4968E+01  3.6852E+00   2.1283E+01  0.000E+00  0.000E+00  0.000E+00  1.08921E+03  1.152E+00  1.268E+01  8.877E-01  1.384E+00
   2    3    3     1     3    2.1283E+01  2.9362E+00   1.8346E+01  0.000E+00  0.000E+00  0.000E+00  1.08352E+03  1.097E+00  1.194E+01  7.167E-01  1.366E+00
   2    3    4     1     4    1.8346E+01  2.4957E+00   1.5851E+01  0.000E+00  0.000E+00  0.000E+00  1.07846E+03  1.051E+00  1.110E+01  6.160E-01  1.350E+00
   2    4    5     2     1    5.8507E+00  2.6772E+00   3.1735E+00  0.000E+00  0.000E+00  0.000E+00  1.07237E+03  4.323E-01  1.200E+01  7.800E-01  1.144E+00
   2    5    6     2     2    3.1735E+00  1.9681E+00   1.2055E+00  0.000E+00  0.000E+00  0.000E+00  1.06679E+03  2.801E-01  1.200E+01  6.000E-01  1.093E+00
   2    6    6     2     3    1.2055E+00  1.2055E+00   0.0000E+00  0.000E+00  0.000E+00  0.000E+00  1.06184E+03  4.406E-02  1.200E+01  6.000E-01  1.015E+00
   2    7    6     2     4    0.0000E+00  0.0000E+00   0.0000E+00  0.000E+00  0.000E+00  0.000E+00  1.05708E+03  0.000E+00  1.200E+01  6.000E-01  1.000E+00
   2    8    6     2     5    0.0000E+00  0.0000E+00   0.0000E+00  0.000E+00  0.000E+00  0.000E+00  1.05236E+03  0.000E+00  1.200E+01  6.000E-01  1.000E+00
   2    3    5     3     1    1.0000E+01  2.8252E+00   7.1748E+00  0.000E+00  0.000E+00  0.000E+00  1.07555E+03  1.909E+00  9.636E+00  7.227E-01  1.955E+00
   2    3    6     3     2    7.1748E+00  2.4905E+00   4.6843E+00  0.000E+00  0.000E+00  0.000E+00  1.07264E+03  1.727E+00  8.909E+00  6.682E-01  1.864E+00
   2    3    7     3     3    4.6843E+00  1.9718E+00   2.7125E+00  0.000E+00  0.000E+00  0.000E+00  1.06987E+03  1.555E+00  8.218E+00  5.547E-01  1.777E+00
   2    4    8     3     4    2.7125E+00  2.2567E+00   4.5579E-01  0.000E+00  0.000E+00  0.000E+00  1.06682E+03  1.364E+00  7.455E+00  6.709E-01  1.682E+00
   2    5    8     3     5    4.5579E-01  4.5579E-01   0.0000E+00  0.000E+00  0.000E+00  0.000E+00  1.06362E+03  0.000E+00  6.655E+00  4.991E-01  1.582E+00
   2    6    8     3     6    0.0000E+00  0.0000E+00   0.0000E+00  0.000E+00  0.000E+00  0.000E+00  1.06055E+03  0.000E+00  6.145E+00  1.844E-01  1.000E+00
   2    5   10     4     1    1.0000E+01  9.0525E-01   9.0947E+00  0.000E+00  0.000E+00  0.000E+00  1.07835E+03  6.210E-01  1.000E+01  2.500E-01  1.207E+00
   2    5    9     4     2    9.0947E+00  1.7835E+00   7.3113E+00  0.000E+00  0.000E+00  0.000E+00  1.07148E+03  5.670E-01  1.000E+01  5.000E-01  1.189E+00
   2    6    8     4     3    7.3113E+00  1.2257E+00   6.0855E+00  0.000E+00  0.000E+00  0.000E+00  1.06368E+03  5.021E-01  1.000E+01  3.500E-01  1.167E+00
   2    6    8     5     1    6.0855E+00  1.4716E+00   4.6139E+00  0.000E+00  0.000E+00  0.000E+00  1.05854E+03  5.396E-01  1.039E+01  4.158E-01  1.180E+00
   2    7    7     5     2    4.6139E+00  1.4897E+00   3.1242E+00  0.000E+00  0.000E+00  0.000E+00  1.05398E+03  4.817E-01  8.557E+00  4.279E-01  1.161E+00
   2    8    7     5     3    3.1242E+00  8.2855E-01   2.2957E+00  0.000E+00  0.000E+00  0.000E+00  1.04968E+03  4.253E-01  6.911E+00  2.419E-01  1.142E+00
   2    8    6     5     4    2.2957E+00  4.9455E-01   1.8011E+00  0.000E+00  0.000E+00  0.000E+00  1.04664E+03  3.856E-01  5.843E+00  1.461E-01  1.129E+00
   2    9    6     6     1    1.8011E+00  1.8011E+00   0.0000E+00  0.000E+00  0.000E+00  0.000E+00  1.04278E+03  5.669E-02  1.200E+01  6.000E-01  1.019E+00
   2   10    7     6     2    0.0000E+00  0.0000E+00   0.0000E+00  0.000E+00  0.000E+00  0.000E+00  1.03818E+03  0.000E+00  1.200E+01  6.000E-01  1.000E+00
   2   11    7     6     3    0.0000E+00  0.0000E+00   0.0000E+00  0.000E+00  0.000E+00  0.000E+00  1.03364E+03  0.000E+00  1.200E+01  6.000E-01  1.000E+00
   2   12    7     6     4    0.0000E+00  0.0000E+00   0.0000E+00  0.000E+00  0.000E+00  0.000E+00  1.02909E+03  0.000E+00  1.200E+01  6.000E-01  5.468E-01
   2   13    7     6     5    0.0000E+00 -7.4050E-01   7.4050E-01  0.000E+00  0.000E+00  0.000E+00  1.02601E+03  9.751E-02  1.200E+01  2.400E-01 -1.028E+00
   2   14    9     7     1    1.5000E+02  2.8268E+00   1.4717E+02  0.000E+00  0.000E+00  0.000E+00  1.03986E+03  2.284E+00  5.528E+01  5.591E+00  1.685E-01
   2   13    8     7     2    1.4717E+02  3.9139E+00   1.4326E+02  0.000E+00  0.000E+00  0.000E+00  1.03477E+03  2.266E+00  5.520E+01  6.140E+00  2.125E-01
   2   13    7     7     3    1.4326E+02  3.1982E+00   1.4006E+02  0.000E+00  0.000E+00  0.000E+00  1.02967E+03  2.247E+00  5.511E+01  5.573E+00  1.913E-01
   2   13    6     8     1    1.4080E+02  1.3054E+00   1.3950E+02  0.000E+00  0.000E+00  0.000E+00  1.02462E+03  2.746E+00  3.982E+01  4.057E+00  1.072E-01
   2   13    5     8     2    1.3950E+02 -1.9299E+00   1.4143E+02  0.000E+00  0.000E+00  0.000E+00  1.01837E+03  2.748E+00  3.985E+01  4.061E+00 -1.584E-01
   2   13    4     8     3    1.4143E+02 -4.9687E+00   1.4639E+02  0.000E+00  0.000E+00  0.000E+00  1.01215E+03  2.773E+00  4.021E+01  4.098E+00 -4.042E-01
   2   13    3     8     4    1.4639E+02 -5.7282E+00   1.5212E+02  0.000E+00  0.000E+00  0.000E+00  1.00594E+03  2.812E+00  4.077E+01  4.154E+00 -4.596E-01
   2   13    2     8     5    1.5212E+02 -3.4701E+00   1.5559E+02  0.000E+00  0.000E+00  0.000E+00  9.99719E+02  2.844E+00  4.123E+01  4.202E+00 -2.753E-01
   2   13    1     8     6    1.5559E+02 -2.2572E+00   1.5785E+02  0.000E+00  0.000E+00  0.000E+00  9.94739E+02  2.864E+00  4.152E+01  2.539E+00 -2.964E-01
   2    4    5     9     1    0.0000E+00  0.0000E+00   0.0000E+00  0.000E+00  0.000E+00  0.000E+00  1.06000E+03  0.000E+00  2.000E+01  2.000E-03  1.000E+00
   2    4    5    10     1    0.0000E+00  0.0000E+00   0.0000E+00  0.000E+00  0.000E+00  0.000E+00  1.08000E+03  0.000E+00  2.000E+01  2.000E-03  1.000E+00



 ..........LAKE  1 IS DRY..........

     SECTIONS OF THE LAKE BOTTOM HAVE BECOME DRY.  THE DRYSECTIONS
     LIE ABOVE THE FOLLOWING  1 AQUIFER CELLS (LAYER,ROW,COLUMN):
     (  2,  4,  5)  (

 PERIOD     3     TIME STEP     5     TIME STEP LENGTH  1.7520E+05
 PERIOD TIME  8.7600E+05     TOTAL SIMULATION TIME  6.1320E+06


                 HYDROLOGIC BUDGET SUMMARIES FOR SIMULATED LAKES
     (ALL FLUID FLUXES ARE VOLUMES ADDED TO THE LAKE DURING PRESENT TIME STEP)
     ----------------------------------------------------------------------------------------
 LAKE    STAGE         VOLUME     VOL. CHANGE      PRECIP     EVAPORATION    SPECIFIED RUNOFF     COMPUTED RUNOFF    TOTAL RUNOFF
   1  1.074500E+03  0.000000E+00  0.000000E+00  0.000000E+00  0.000000E+00   0.000000E+00          0.000000E+00      0.000000E+00

            GROUND WATER            SURFACE WATER        WATER          UZF INFIL.
 LAKE    INFLOW     OUTFLOW      INFLOW     OUTFLOW       USE        FROM LAKE
   1  0.0000E+00  0.0000E+00  0.0000E+00  0.0000E+00  0.0000E+00       0.0000E+00

      CONNECTED LAKE   TIME-STEP         STAGE-CHANGE          PERCENT
 LAKE    INFLUX      SURFACE AREA   TIME STEP  CUMULATIVE    DISCREPANCY
   1   0.0000E+00     0.0000E+00   0.0000E+00  0.0000E+00       0.000
 --------------------------------------------------------------------------------



            CUMULATIVE HYDROLOGIC BUDGET SUMMARIES FOR SIMULATED LAKES
     (ALL FLUID FLUXES ARE SUMS OF VOLUMES ADDED TO THE LAKE SINCE INITIAL TIME)
     ---------------------------------------------------------------------------
 LAKE       PRECIP       EVAP     SPECIFIED RUNOFF   COMPUTED RUNOFF   TOTAL RUNOFF
   1     0.0000E+00  0.0000E+00       0.0000E+00       0.0000E+00       0.0000E+00

            GROUND WATER            SURFACE WATER       UZF INFIL.
 LAKE    INFLOW     OUTFLOW      INFLOW     OUTFLOW     FROM LAKE
   1  0.0000E+00  0.0000E+00  0.0000E+00  0.0000E+00    0.0000E+00

         WATER    CONNECTED LAKE   CHANGE       PERCENT
 LAKE     USE         INFLUX       IN VOL.    DISCREPANCY
   1   0.0000E+00   0.0000E+00   0.0000E+00      0.000
 --------------------------------------------------------------------------------

 UBDSV3 SAVING "           GW ET" ON UNIT  61 AT TIME STEP 5, STRESS PERIOD 3
 UBDSV3 SAVING "    UZF RECHARGE" ON UNIT  61 AT TIME STEP 5, STRESS PERIOD 3
 UBDSV3 SAVING " SURFACE LEAKAGE" ON UNIT  61 AT TIME STEP 5, STRESS PERIOD 3


UNSATURATED ZONE PACKAGE VOLUMETRIC BUDGET FOR  TIME STEP     5 STRESS PERIOD    3
  ------------------------------------------------------------------------------



     CUMULATIVE VOLUMES      L**3       RATES FOR THIS TIME STEP      L**3/T
     ------------------                 ------------------------

           IN:                                      IN:
           ---                                      ---
        INFILTRATION =   253895460.0000          INFILTRATION =          84.5000

          OUT:                                     OUT:
          ----                                     ----
              UZF ET =   417364879.7278                UZF ET =          56.7872
        UZF RECHARGE =   133088498.1726          UZF RECHARGE =          30.2159

            IN - OUT =  -296557917.9004              IN - OUT =          -2.5031

          STORAGE:                                 STORAGE:
          --------                                 --------
      STORAGE CHANGE =  -296492049.3113        STORAGE CHANGE =          -2.4928

 PERCENT DISCREPANCY IS DIFFERENCE BETWEEN IN-OUT MINUS CHANGE IN STORAGE
 DIVIDED BY THE AVERAGE OF IN AND OUT TIMES 100

 PERCENT DISCREPANCY =          -0.00     PERCENT DISCREPANCY =          -0.01






1
  VOLUMETRIC BUDGET FOR ENTIRE MODEL AT END OF TIME STEP    5, STRESS PERIOD   3
  ------------------------------------------------------------------------------

     CUMULATIVE VOLUMES      L**3       RATES FOR THIS TIME STEP      L**3/T
     ------------------                 ------------------------

           IN:                                      IN:
           ---                                      ---
             STORAGE     =     8227659.5000               STORAGE     =           0.2189
       CONSTANT HEAD     =           0.0000         CONSTANT HEAD     =           0.0000
               WELLS     =           0.0000                 WELLS     =           0.0000
     HEAD DEP BOUNDS     =     1319255.3750       HEAD DEP BOUNDS     =           0.2144
      STREAM LEAKAGE     =   294191392.0000        STREAM LEAKAGE     =          48.2444
       LAKE  SEEPAGE     =           0.0000         LAKE  SEEPAGE     =           0.0000
        UZF RECHARGE     =   133088496.0000          UZF RECHARGE     =          30.2159
               GW ET     =           0.0000                 GW ET     =           0.0000
     SURFACE LEAKAGE     =           0.0000       SURFACE LEAKAGE     =           0.0000

                TOTAL IN =   436826816.0000                  TOTAL IN =          78.8935

          OUT:                                     OUT:
          ----                                     ----
             STORAGE     =   135933968.0000               STORAGE     =          36.6653
       CONSTANT HEAD     =           0.0000         CONSTANT HEAD     =           0.0000
               WELLS     =   113880000.0000                 WELLS     =          10.0000
     HEAD DEP BOUNDS     =     1763611.1250       HEAD DEP BOUNDS     =           0.2899
      STREAM LEAKAGE     =   109711048.0000        STREAM LEAKAGE     =          19.0945
       LAKE  SEEPAGE     =           0.0000         LAKE  SEEPAGE     =           0.0000
        UZF RECHARGE     =           0.0000          UZF RECHARGE     =           0.0000
               GW ET     =    75531784.0000                 GW ET     =          12.8438
     SURFACE LEAKAGE     =           0.0000       SURFACE LEAKAGE     =           0.0000

               TOTAL OUT =   436820416.0000                 TOTAL OUT =          78.8934

                IN - OUT =        6400.0000                  IN - OUT =       9.9182E-05

     PERCENT DISCREPANCY =           0.00         PERCENT DISCREPANCY =           0.00






         TIME SUMMARY AT END OF TIME STEP    5 IN STRESS PERIOD    3
                    SECONDS     MINUTES      HOURS       DAYS        YEARS
                    -----------------------------------------------------------
   TIME STEP LENGTH 1.75200E+05  2920.0      48.667      2.0278     5.55175E-03
 STRESS PERIOD TIME 8.76000E+05  14600.      243.33      10.139     2.77588E-02
         TOTAL TIME 6.13200E+06 1.02200E+05  1703.3      70.972     0.19431    
1
 
 SOLVING FOR HEAD 
                                                   Max.-Head-Change                         Max.-Flux-Residual
  Residual-Control   Outer-Iter.   Inner-Iter.     Column Row Layer    Maximum-Head-Change  Column Row Layer    Maximum-Flux-Residual          L2-NORM 
          0                 1           2            10   10     2       0.4713845759E-01       4    9    2         0.1085033010E+01      0.4345182748E+01
          0                 2           2             4    9     2      -0.1814948830E-02       4    9    2        -0.5012887242E-01      0.1537359742E+00
          0                 3           1             2    2     2       0.2881827053E-04       2    2    2         0.8388612471E-03      0.2240064298E-02

    ------------------------------------------------
       NWT REQUIRED            3 OUTER ITERATIONS 
       AND A TOTAL OF          5 INNER ITERATIONS.
    ------------------------------------------------

 NO OUTPUT CONTROL FOR STRESS PERIOD    3   TIME STEP    6
 ..........LAKE  1 IS DRY..........
 
 SOLVING FOR HEAD 
                                                   Max.-Head-Change                         Max.-Flux-Residual
  Residual-Control   Outer-Iter.   Inner-Iter.     Column Row Layer    Maximum-Head-Change  Column Row Layer    Maximum-Flux-Residual          L2-NORM 
          0                 1           2             6    3     2       0.5732843085E-01       4    9    2         0.1062488030E+01      0.4199557085E+01
          0                 2           2             4    9     2      -0.1778472222E-02       4    9    2        -0.4915599496E-01      0.1447064036E+00
          0                 3           1             3   12     2       0.2567041764E-04       3   12    2         0.7647284860E-03      0.2089031658E-02

    ------------------------------------------------
       NWT REQUIRED            3 OUTER ITERATIONS 
       AND A TOTAL OF          5 INNER ITERATIONS.
    ------------------------------------------------

 NO OUTPUT CONTROL FOR STRESS PERIOD    3   TIME STEP    7
 ..........LAKE  1 IS DRY..........
 
 SOLVING FOR HEAD 
                                                   Max.-Head-Change                         Max.-Flux-Residual
  Residual-Control   Outer-Iter.   Inner-Iter.     Column Row Layer    Maximum-Head-Change  Column Row Layer    Maximum-Flux-Residual          L2-NORM 
          0                 1           2             6    3     2       0.5584939372E-01       4    9    2         0.1039078605E+01      0.4165311509E+01
          0                 2           2             4    9     2      -0.1739142916E-02       4    9    2        -0.4809846428E-01      0.1470646171E+00
          0                 3           1             3   12     2       0.2519875866E-04       6   11    2         0.7600392973E-03      0.2285666019E-02

    ------------------------------------------------
       NWT REQUIRED            3 OUTER ITERATIONS 
       AND A TOTAL OF          5 INNER ITERATIONS.
    ------------------------------------------------

 NO OUTPUT CONTROL FOR STRESS PERIOD    3   TIME STEP    8
 ..........LAKE  1 IS DRY..........
 
 SOLVING FOR HEAD 
                                                   Max.-Head-Change                         Max.-Flux-Residual
  Residual-Control   Outer-Iter.   Inner-Iter.     Column Row Layer    Maximum-Head-Change  Column Row Layer    Maximum-Flux-Residual          L2-NORM 
          0                 1           2             6    3     2       0.5447502500E-01       4    8    2         0.1017821500E+01      0.4045834719E+01
          0                 2           2             4    8     2      -0.1703049782E-02       4    9    2        -0.4705665884E-01      0.1420789312E+00
          0                 3           1             6   11     2       0.2600798120E-04       6   11    2         0.7923379962E-03      0.2280850176E-02

    ------------------------------------------------
       NWT REQUIRED            3 OUTER ITERATIONS 
       AND A TOTAL OF          5 INNER ITERATIONS.
    ------------------------------------------------

 NO OUTPUT CONTROL FOR STRESS PERIOD    3   TIME STEP    9
 ..........LAKE  1 IS DRY..........
 
 SOLVING FOR HEAD 
                                                   Max.-Head-Change                         Max.-Flux-Residual
  Residual-Control   Outer-Iter.   Inner-Iter.     Column Row Layer    Maximum-Head-Change  Column Row Layer    Maximum-Flux-Residual          L2-NORM 
          0                 1           2             6    3     2       0.5311745271E-01       4    8    2         0.9971121164E+00      0.3907981989E+01
          0                 2           2             4    8     2      -0.1668602866E-02       4    8    2        -0.4606725582E-01      0.1381051812E+00
          0                 3           1             6   11     2       0.2733144182E-04       6   11    2         0.8269934415E-03      0.2327896682E-02

    ------------------------------------------------
       NWT REQUIRED            3 OUTER ITERATIONS 
       AND A TOTAL OF          5 INNER ITERATIONS.
    ------------------------------------------------

 OUTPUT CONTROL FOR STRESS PERIOD    3   TIME STEP   10
    PRINT BUDGET
    SAVE BUDGET

            WELLS   PERIOD    3   STEP  10
 WELL      1   LAYER   2   ROW     6   COL     4   RATE    -1.00000    
 WELL      2   LAYER   2   ROW     6   COL     5   RATE    -1.00000    
 WELL      3   LAYER   2   ROW     7   COL     4   RATE    -1.00000    
 WELL      4   LAYER   2   ROW     7   COL     5   RATE    -1.00000    
 WELL      5   LAYER   2   ROW     8   COL     4   RATE    -1.00000    
 WELL      6   LAYER   2   ROW     8   COL     5   RATE    -1.00000    
 WELL      7   LAYER   2   ROW     9   COL     4   RATE    -1.00000    
 WELL      8   LAYER   2   ROW     9   COL     5   RATE    -1.00000    
 WELL      9   LAYER   2   ROW    10   COL     4   RATE    -1.00000    
 WELL     10   LAYER   2   ROW    10   COL     5   RATE    -1.00000    

  HEAD DEP BOUNDS   PERIOD    3   STEP    10
 BOUNDARY      1   LAYER   2   ROW    13   COL     1   RATE   -0.290385    
 BOUNDARY      2   LAYER   2   ROW    14   COL     9   RATE    0.214579    



 STREAM LISTING     PERIOD      3   STEP       10

 LAYER ROW COL. STREAM  RCH.  FLOW INTO     FLOW TO   FLOW OUT OF   OVRLND.     DIRECT     STREAM       STREAM     STREAM     STREAM   STREAMBED  STREAMBED
                SEG.NO.  NO.  STRM. RCH.    AQUIFER    STRM. RCH.    RUNOFF     PRECIP       ET          HEAD       DEPTH      WIDTH   CONDCTNC.   GRADIENT

   2    1    1     1     1    2.4000E+01  1.9215E+00   2.2079E+01  0.000E+00  0.000E+00  0.000E+00  1.09420E+03  1.150E+00  1.266E+01  5.698E-01  1.124E+00
   2    2    2     1     2    2.2079E+01  3.4713E+00   1.8607E+01  0.000E+00  0.000E+00  0.000E+00  1.08916E+03  1.106E+00  1.208E+01  8.454E-01  1.369E+00
   2    3    3     1     3    1.8607E+01  2.7118E+00   1.5895E+01  0.000E+00  0.000E+00  0.000E+00  1.08347E+03  1.054E+00  1.115E+01  6.689E-01  1.351E+00
   2    3    4     1     4    1.5895E+01  2.2935E+00   1.3602E+01  0.000E+00  0.000E+00  0.000E+00  1.07842E+03  1.007E+00  1.031E+01  5.724E-01  1.336E+00
   2    4    5     2     1    3.6019E+00  2.5661E+00   1.0357E+00  0.000E+00  0.000E+00  0.000E+00  1.07222E+03  2.899E-01  1.200E+01  7.800E-01  1.097E+00
   2    5    6     2     2    1.0357E+00  1.0357E+00   0.0000E+00  0.000E+00  0.000E+00  0.000E+00  1.06655E+03  4.022E-02  1.200E+01  6.000E-01  1.013E+00
   2    6    6     2     3    0.0000E+00  0.0000E+00   0.0000E+00  0.000E+00  0.000E+00  0.000E+00  1.06179E+03  0.000E+00  1.200E+01  6.000E-01  1.000E+00
   2    7    6     2     4    0.0000E+00  0.0000E+00   0.0000E+00  0.000E+00  0.000E+00  0.000E+00  1.05708E+03  0.000E+00  1.200E+01  6.000E-01  1.000E+00
   2    8    6     2     5    0.0000E+00  0.0000E+00   0.0000E+00  0.000E+00  0.000E+00  0.000E+00  1.05236E+03  0.000E+00  1.200E+01  6.000E-01  1.000E+00
   2    3    5     3     1    1.0000E+01  2.8252E+00   7.1748E+00  0.000E+00  0.000E+00  0.000E+00  1.07555E+03  1.909E+00  9.636E+00  7.227E-01  1.955E+00
   2    3    6     3     2    7.1748E+00  2.4905E+00   4.6843E+00  0.000E+00  0.000E+00  0.000E+00  1.07264E+03  1.727E+00  8.909E+00  6.682E-01  1.864E+00
   2    3    7     3     3    4.6843E+00  1.9718E+00   2.7125E+00  0.000E+00  0.000E+00  0.000E+00  1.06987E+03  1.555E+00  8.218E+00  5.547E-01  1.777E+00
   2    4    8     3     4    2.7125E+00  2.2567E+00   4.5579E-01  0.000E+00  0.000E+00  0.000E+00  1.06682E+03  1.364E+00  7.455E+00  6.709E-01  1.682E+00
   2    5    8     3     5    4.5579E-01  4.5579E-01   0.0000E+00  0.000E+00  0.000E+00  0.000E+00  1.06362E+03  0.000E+00  6.655E+00  4.991E-01  1.582E+00
   2    6    8     3     6    0.0000E+00  0.0000E+00   0.0000E+00  0.000E+00  0.000E+00  0.000E+00  1.06055E+03  0.000E+00  6.145E+00  1.844E-01  1.000E+00
   2    5   10     4     1    1.0000E+01  9.0525E-01   9.0947E+00  0.000E+00  0.000E+00  0.000E+00  1.07835E+03  6.210E-01  1.000E+01  2.500E-01  1.207E+00
   2    5    9     4     2    9.0947E+00  1.7835E+00   7.3113E+00  0.000E+00  0.000E+00  0.000E+00  1.07148E+03  5.670E-01  1.000E+01  5.000E-01  1.189E+00
   2    6    8     4     3    7.3113E+00  1.2257E+00   6.0855E+00  0.000E+00  0.000E+00  0.000E+00  1.06368E+03  5.021E-01  1.000E+01  3.500E-01  1.167E+00
   2    6    8     5     1    6.0855E+00  1.4716E+00   4.6139E+00  0.000E+00  0.000E+00  0.000E+00  1.05854E+03  5.396E-01  1.039E+01  4.158E-01  1.180E+00
   2    7    7     5     2    4.6139E+00  1.4897E+00   3.1242E+00  0.000E+00  0.000E+00  0.000E+00  1.05398E+03  4.817E-01  8.557E+00  4.279E-01  1.161E+00
   2    8    7     5     3    3.1242E+00  8.2855E-01   2.2957E+00  0.000E+00  0.000E+00  0.000E+00  1.04968E+03  4.253E-01  6.911E+00  2.419E-01  1.142E+00
   2    8    6     5     4    2.2957E+00  4.9455E-01   1.8011E+00  0.000E+00  0.000E+00  0.000E+00  1.04664E+03  3.856E-01  5.843E+00  1.461E-01  1.129E+00
   2    9    6     6     1    1.8011E+00  1.8011E+00   0.0000E+00  0.000E+00  0.000E+00  0.000E+00  1.04278E+03  5.669E-02  1.200E+01  6.000E-01  1.019E+00
   2   10    7     6     2    0.0000E+00  0.0000E+00   0.0000E+00  0.000E+00  0.000E+00  0.000E+00  1.03818E+03  0.000E+00  1.200E+01  6.000E-01  1.000E+00
   2   11    7     6     3    0.0000E+00  0.0000E+00   0.0000E+00  0.000E+00  0.000E+00  0.000E+00  1.03364E+03  0.000E+00  1.200E+01  6.000E-01  1.000E+00
   2   12    7     6     4    0.0000E+00  0.0000E+00   0.0000E+00  0.000E+00  0.000E+00  0.000E+00  1.02909E+03  0.000E+00  1.200E+01  6.000E-01  5.437E-01
   2   13    7     6     5    0.0000E+00 -7.4384E-01   7.4384E-01  0.000E+00  0.000E+00  0.000E+00  1.02601E+03  9.778E-02  1.200E+01  2.400E-01 -1.033E+00
   2   14    9     7     1    1.5000E+02  2.8580E+00   1.4714E+02  0.000E+00  0.000E+00  0.000E+00  1.03986E+03  2.284E+00  5.528E+01  5.591E+00  1.704E-01
   2   13    8     7     2    1.4714E+02  3.9242E+00   1.4322E+02  0.000E+00  0.000E+00  0.000E+00  1.03477E+03  2.266E+00  5.520E+01  6.140E+00  2.130E-01
   2   13    7     7     3    1.4322E+02  3.1192E+00   1.4010E+02  0.000E+00  0.000E+00  0.000E+00  1.02967E+03  2.247E+00  5.511E+01  5.573E+00  1.866E-01
   2   13    6     8     1    1.4084E+02  1.2346E+00   1.3961E+02  0.000E+00  0.000E+00  0.000E+00  1.02462E+03  2.747E+00  3.982E+01  4.058E+00  1.014E-01
   2   13    5     8     2    1.3961E+02 -1.9820E+00   1.4159E+02  0.000E+00  0.000E+00  0.000E+00  1.01837E+03  2.749E+00  3.986E+01  4.062E+00 -1.626E-01
   2   13    4     8     3    1.4159E+02 -5.0232E+00   1.4661E+02  0.000E+00  0.000E+00  0.000E+00  1.01215E+03  2.775E+00  4.023E+01  4.100E+00 -4.084E-01
   2   13    3     8     4    1.4661E+02 -5.7787E+00   1.5239E+02  0.000E+00  0.000E+00  0.000E+00  1.00594E+03  2.813E+00  4.079E+01  4.157E+00 -4.634E-01
   2   13    2     8     5    1.5239E+02 -3.4809E+00   1.5587E+02  0.000E+00  0.000E+00  0.000E+00  9.99721E+02  2.846E+00  4.126E+01  4.205E+00 -2.759E-01
   2   13    1     8     6    1.5587E+02 -2.2894E+00   1.5816E+02  0.000E+00  0.000E+00  0.000E+00  9.94741E+02  2.866E+00  4.155E+01  2.540E+00 -3.004E-01
   2    4    5     9     1    0.0000E+00  0.0000E+00   0.0000E+00  0.000E+00  0.000E+00  0.000E+00  1.06000E+03  0.000E+00  2.000E+01  2.000E-03  1.000E+00
   2    4    5    10     1    0.0000E+00  0.0000E+00   0.0000E+00  0.000E+00  0.000E+00  0.000E+00  1.08000E+03  0.000E+00  2.000E+01  2.000E-03  1.000E+00



 ..........LAKE  1 IS DRY..........

     SECTIONS OF THE LAKE BOTTOM HAVE BECOME DRY.  THE DRYSECTIONS
     LIE ABOVE THE FOLLOWING  1 AQUIFER CELLS (LAYER,ROW,COLUMN):
     (  2,  4,  5)  (

 PERIOD     3     TIME STEP    10     TIME STEP LENGTH  1.7520E+05
 PERIOD TIME  1.7520E+06     TOTAL SIMULATION TIME  7.0080E+06


                 HYDROLOGIC BUDGET SUMMARIES FOR SIMULATED LAKES
     (ALL FLUID FLUXES ARE VOLUMES ADDED TO THE LAKE DURING PRESENT TIME STEP)
     ----------------------------------------------------------------------------------------
 LAKE    STAGE         VOLUME     VOL. CHANGE      PRECIP     EVAPORATION    SPECIFIED RUNOFF     COMPUTED RUNOFF    TOTAL RUNOFF
   1  1.074500E+03  0.000000E+00  0.000000E+00  0.000000E+00  0.000000E+00   0.000000E+00          0.000000E+00      0.000000E+00

            GROUND WATER            SURFACE WATER        WATER          UZF INFIL.
 LAKE    INFLOW     OUTFLOW      INFLOW     OUTFLOW       USE        FROM LAKE
   1  0.0000E+00  0.0000E+00  0.0000E+00  0.0000E+00  0.0000E+00       0.0000E+00

      CONNECTED LAKE   TIME-STEP         STAGE-CHANGE          PERCENT
 LAKE    INFLUX      SURFACE AREA   TIME STEP  CUMULATIVE    DISCREPANCY
   1   0.0000E+00     0.0000E+00   0.0000E+00  0.0000E+00       0.000
 --------------------------------------------------------------------------------



            CUMULATIVE HYDROLOGIC BUDGET SUMMARIES FOR SIMULATED LAKES
     (ALL FLUID FLUXES ARE SUMS OF VOLUMES ADDED TO THE LAKE SINCE INITIAL TIME)
     ---------------------------------------------------------------------------
 LAKE       PRECIP       EVAP     SPECIFIED RUNOFF   COMPUTED RUNOFF   TOTAL RUNOFF
   1     0.0000E+00  0.0000E+00       0.0000E+00       0.0000E+00       0.0000E+00

            GROUND WATER            SURFACE WATER       UZF INFIL.
 LAKE    INFLOW     OUTFLOW      INFLOW     OUTFLOW     FROM LAKE
   1  0.0000E+00  0.0000E+00  0.0000E+00  0.0000E+00    0.0000E+00

         WATER    CONNECTED LAKE   CHANGE       PERCENT
 LAKE     USE         INFLUX       IN VOL.    DISCREPANCY
   1   0.0000E+00   0.0000E+00   0.0000E+00      0.000
 --------------------------------------------------------------------------------

 UBDSV3 SAVING "           GW ET" ON UNIT  61 AT TIME STEP 10, STRESS PERIOD 3
 UBDSV3 SAVING "    UZF RECHARGE" ON UNIT  61 AT TIME STEP 10, STRESS PERIOD 3
 UBDSV3 SAVING " SURFACE LEAKAGE" ON UNIT  61 AT TIME STEP 10, STRESS PERIOD 3


UNSATURATED ZONE PACKAGE VOLUMETRIC BUDGET FOR  TIME STEP    10 STRESS PERIOD    3
  ------------------------------------------------------------------------------



     CUMULATIVE VOLUMES      L**3       RATES FOR THIS TIME STEP      L**3/T
     ------------------                 ------------------------

           IN:                                      IN:
           ---                                      ---
        INFILTRATION =   327917460.0000          INFILTRATION =          84.5000

          OUT:                                     OUT:
          ----                                     ----
              UZF ET =   468019143.4697                UZF ET =          58.8232
        UZF RECHARGE =   158133252.9705          UZF RECHARGE =          27.0968

            IN - OUT =  -298234936.4402              IN - OUT =          -1.4200

          STORAGE:                                 STORAGE:
          --------                                 --------
      STORAGE CHANGE =  -298158141.2358        STORAGE CHANGE =          -1.4134

 PERCENT DISCREPANCY IS DIFFERENCE BETWEEN IN-OUT MINUS CHANGE IN STORAGE
 DIVIDED BY THE AVERAGE OF IN AND OUT TIMES 100

 PERCENT DISCREPANCY =          -0.00     PERCENT DISCREPANCY =          -0.01






1
  VOLUMETRIC BUDGET FOR ENTIRE MODEL AT END OF TIME STEP   10, STRESS PERIOD   3
  ------------------------------------------------------------------------------

     CUMULATIVE VOLUMES      L**3       RATES FOR THIS TIME STEP      L**3/T
     ------------------                 ------------------------

           IN:                                      IN:
           ---                                      ---
             STORAGE     =     8855101.0000               STORAGE     =           0.9156
       CONSTANT HEAD     =           0.0000         CONSTANT HEAD     =           0.0000
               WELLS     =           0.0000                 WELLS     =           0.0000
     HEAD DEP BOUNDS     =     1507170.3750       HEAD DEP BOUNDS     =           0.2146
      STREAM LEAKAGE     =   334686464.0000        STREAM LEAKAGE     =          45.1359
       LAKE  SEEPAGE     =           0.0000         LAKE  SEEPAGE     =           0.0000
        UZF RECHARGE     =   158133248.0000          UZF RECHARGE     =          27.0968
               GW ET     =           0.0000                 GW ET     =           0.0000
     SURFACE LEAKAGE     =           0.0000       SURFACE LEAKAGE     =           0.0000

                TOTAL IN =   503181984.0000                  TOTAL IN =          73.3628

          OUT:                                     OUT:
          ----                                     ----
             STORAGE     =   165202288.0000               STORAGE     =          30.9753
       CONSTANT HEAD     =           0.0000         CONSTANT HEAD     =           0.0000
               WELLS     =   122640000.0000                 WELLS     =          10.0000
     HEAD DEP BOUNDS     =     2017819.3750       HEAD DEP BOUNDS     =           0.2904
      STREAM LEAKAGE     =   126551256.0000        STREAM LEAKAGE     =          19.2980
       LAKE  SEEPAGE     =           0.0000         LAKE  SEEPAGE     =           0.0000
        UZF RECHARGE     =           0.0000          UZF RECHARGE     =           0.0000
               GW ET     =    86764192.0000                 GW ET     =          12.7991
     SURFACE LEAKAGE     =           0.0000       SURFACE LEAKAGE     =           0.0000

               TOTAL OUT =   503175584.0000                 TOTAL OUT =          73.3628

                IN - OUT =        6400.0000                  IN - OUT =       2.2888E-05

     PERCENT DISCREPANCY =           0.00         PERCENT DISCREPANCY =           0.00






         TIME SUMMARY AT END OF TIME STEP   10 IN STRESS PERIOD    3
                    SECONDS     MINUTES      HOURS       DAYS        YEARS
                    -----------------------------------------------------------
   TIME STEP LENGTH 1.75200E+05  2920.0      48.667      2.0278     5.55175E-03
 STRESS PERIOD TIME 1.75200E+06  29200.      486.67      20.278     5.55175E-02
         TOTAL TIME 7.00800E+06 1.16800E+05  1946.7      81.111     0.22207    
1
 
 SOLVING FOR HEAD 
                                                   Max.-Head-Change                         Max.-Flux-Residual
  Residual-Control   Outer-Iter.   Inner-Iter.     Column Row Layer    Maximum-Head-Change  Column Row Layer    Maximum-Flux-Residual          L2-NORM 
          0                 1           2             6    3     2       0.5176686480E-01       4    8    2         0.9763814597E+00      0.3862703119E+01
          0                 2           2             4    8     2      -0.1633758926E-02       4    8    2        -0.4511874264E-01      0.1395496253E+00
          0                 3           1             6   11     2       0.2854160338E-04       6   11    2         0.8617957910E-03      0.2486481467E-02

    ------------------------------------------------
       NWT REQUIRED            3 OUTER ITERATIONS 
       AND A TOTAL OF          5 INNER ITERATIONS.
    ------------------------------------------------

 NO OUTPUT CONTROL FOR STRESS PERIOD    3   TIME STEP   11
 ..........LAKE  1 IS DRY..........
 
 SOLVING FOR HEAD 
                                                   Max.-Head-Change                         Max.-Flux-Residual
  Residual-Control   Outer-Iter.   Inner-Iter.     Column Row Layer    Maximum-Head-Change  Column Row Layer    Maximum-Flux-Residual          L2-NORM 
          0                 1           2             6    3     2       0.5042398158E-01       4    8    2         0.9559113650E+00      0.3788443451E+01
          0                 2           2             4    8     2      -0.1600419882E-02       6    5    2         0.4841693782E-01      0.1403129652E+00
          0                 3           1             6   11     2       0.2984759826E-04       6   11    2         0.8969288983E-03      0.2658796663E-02

    ------------------------------------------------
       NWT REQUIRED            3 OUTER ITERATIONS 
       AND A TOTAL OF          5 INNER ITERATIONS.
    ------------------------------------------------

 NO OUTPUT CONTROL FOR STRESS PERIOD    3   TIME STEP   12
 ..........LAKE  1 IS DRY..........
 
 SOLVING FOR HEAD 
                                                   Max.-Head-Change                         Max.-Flux-Residual
  Residual-Control   Outer-Iter.   Inner-Iter.     Column Row Layer    Maximum-Head-Change  Column Row Layer    Maximum-Flux-Residual          L2-NORM 
          0                 1           2             6    3     2       0.4908825250E-01       4    8    2         0.9352443213E+00      0.3659484034E+01
          0                 2           2             4    8     2      -0.1565549447E-02       4    8    2        -0.4324571093E-01      0.1352754794E+00
          0                 3           1             6   11     2       0.3100737651E-04       6   11    2         0.9308070485E-03      0.2655995656E-02

    ------------------------------------------------
       NWT REQUIRED            3 OUTER ITERATIONS 
       AND A TOTAL OF          5 INNER ITERATIONS.
    ------------------------------------------------

 NO OUTPUT CONTROL FOR STRESS PERIOD    3   TIME STEP   13
 ..........LAKE  1 IS DRY..........
 
 SOLVING FOR HEAD 
                                                   Max.-Head-Change                         Max.-Flux-Residual
  Residual-Control   Outer-Iter.   Inner-Iter.     Column Row Layer    Maximum-Head-Change  Column Row Layer    Maximum-Flux-Residual          L2-NORM 
          0                 1           2             6    3     2       0.4777485976E-01       4    8    2         0.9150903138E+00      0.3529976401E+01
          0                 2           2             4    8     2      -0.1532375734E-02       4    8    2        -0.4233066032E-01      0.1314410560E+00
          0                 3           1             6   11     2       0.3223899469E-04       6   11    2         0.9638994716E-03      0.2700669277E-02

    ------------------------------------------------
       NWT REQUIRED            3 OUTER ITERATIONS 
       AND A TOTAL OF          5 INNER ITERATIONS.
    ------------------------------------------------

 NO OUTPUT CONTROL FOR STRESS PERIOD    3   TIME STEP   14
 ..........LAKE  1 IS DRY..........
 
 SOLVING FOR HEAD 
                                                   Max.-Head-Change                         Max.-Flux-Residual
  Residual-Control   Outer-Iter.   Inner-Iter.     Column Row Layer    Maximum-Head-Change  Column Row Layer    Maximum-Flux-Residual          L2-NORM 
          0                 1           2            10   10     2       0.4688127393E-01       4    8    2         0.8950343355E+00      0.3370450652E+01
          0                 2           2             4    8     2      -0.1498904587E-02       4    8    2        -0.4141297517E-01      0.1241258094E+00
          0                 3           1             6   11     2       0.3329282151E-04       6   11    2         0.9952104856E-03      0.2576934913E-02

    ------------------------------------------------
       NWT REQUIRED            3 OUTER ITERATIONS 
       AND A TOTAL OF          5 INNER ITERATIONS.
    ------------------------------------------------

 OUTPUT CONTROL FOR STRESS PERIOD    3   TIME STEP   15
    PRINT BUDGET
    PRINT HEAD FOR ALL LAYERS
    SAVE HEAD FOR ALL LAYERS
    SAVE BUDGET

            WELLS   PERIOD    3   STEP  15
 WELL      1   LAYER   2   ROW     6   COL     4   RATE    -1.00000    
 WELL      2   LAYER   2   ROW     6   COL     5   RATE    -1.00000    
 WELL      3   LAYER   2   ROW     7   COL     4   RATE    -1.00000    
 WELL      4   LAYER   2   ROW     7   COL     5   RATE    -1.00000    
 WELL      5   LAYER   2   ROW     8   COL     4   RATE    -1.00000    
 WELL      6   LAYER   2   ROW     8   COL     5   RATE    -1.00000    
 WELL      7   LAYER   2   ROW     9   COL     4   RATE    -1.00000    
 WELL      8   LAYER   2   ROW     9   COL     5   RATE    -1.00000    
 WELL      9   LAYER   2   ROW    10   COL     4   RATE    -1.00000    
 WELL     10   LAYER   2   ROW    10   COL     5   RATE    -1.00000    

  HEAD DEP BOUNDS   PERIOD    3   STEP    15
 BOUNDARY      1   LAYER   2   ROW    13   COL     1   RATE   -0.290716    
 BOUNDARY      2   LAYER   2   ROW    14   COL     9   RATE    0.214608    



 STREAM LISTING     PERIOD      3   STEP       15

 LAYER ROW COL. STREAM  RCH.  FLOW INTO     FLOW TO   FLOW OUT OF   OVRLND.     DIRECT     STREAM       STREAM     STREAM     STREAM   STREAMBED  STREAMBED
                SEG.NO.  NO.  STRM. RCH.    AQUIFER    STRM. RCH.    RUNOFF     PRECIP       ET          HEAD       DEPTH      WIDTH   CONDCTNC.   GRADIENT

   2    1    1     1     1    2.3879E+01  1.9270E+00   2.1952E+01  0.000E+00  0.000E+00  0.000E+00  1.09420E+03  1.148E+00  1.264E+01  5.687E-01  1.130E+00
   2    2    2     1     2    2.1952E+01  3.4617E+00   1.8490E+01  0.000E+00  0.000E+00  0.000E+00  1.08916E+03  1.104E+00  1.205E+01  8.435E-01  1.368E+00
   2    3    3     1     3    1.8490E+01  2.7018E+00   1.5789E+01  0.000E+00  0.000E+00  0.000E+00  1.08347E+03  1.052E+00  1.111E+01  6.668E-01  1.351E+00
   2    3    4     1     4    1.5789E+01  2.2844E+00   1.3504E+01  0.000E+00  0.000E+00  0.000E+00  1.07841E+03  1.005E+00  1.028E+01  5.704E-01  1.335E+00
   2    4    5     2     1    3.5041E+00  2.5605E+00   9.4357E-01  0.000E+00  0.000E+00  0.000E+00  1.07222E+03  2.828E-01  1.200E+01  7.800E-01  1.094E+00
   2    5    6     2     2    9.4357E-01  9.4357E-01   0.0000E+00  0.000E+00  0.000E+00  0.000E+00  1.06653E+03  1.902E-02  1.200E+01  6.000E-01  1.006E+00
   2    6    6     2     3    0.0000E+00  0.0000E+00   0.0000E+00  0.000E+00  0.000E+00  0.000E+00  1.06179E+03  0.000E+00  1.200E+01  6.000E-01  1.000E+00
   2    7    6     2     4    0.0000E+00  0.0000E+00   0.0000E+00  0.000E+00  0.000E+00  0.000E+00  1.05708E+03  0.000E+00  1.200E+01  6.000E-01  1.000E+00
   2    8    6     2     5    0.0000E+00  0.0000E+00   0.0000E+00  0.000E+00  0.000E+00  0.000E+00  1.05236E+03  0.000E+00  1.200E+01  6.000E-01  1.000E+00
   2    3    5     3     1    1.0000E+01  2.8252E+00   7.1748E+00  0.000E+00  0.000E+00  0.000E+00  1.07555E+03  1.909E+00  9.636E+00  7.227E-01  1.955E+00
   2    3    6     3     2    7.1748E+00  2.4905E+00   4.6843E+00  0.000E+00  0.000E+00  0.000E+00  1.07264E+03  1.727E+00  8.909E+00  6.682E-01  1.864E+00
   2    3    7     3     3    4.6843E+00  1.9718E+00   2.7125E+00  0.000E+00  0.000E+00  0.000E+00  1.06987E+03  1.555E+00  8.218E+00  5.547E-01  1.777E+00
   2    4    8     3     4    2.7125E+00  2.2567E+00   4.5579E-01  0.000E+00  0.000E+00  0.000E+00  1.06682E+03  1.364E+00  7.455E+00  6.709E-01  1.682E+00
   2    5    8     3     5    4.5579E-01  4.5579E-01   0.0000E+00  0.000E+00  0.000E+00  0.000E+00  1.06362E+03  0.000E+00  6.655E+00  4.991E-01  1.582E+00
   2    6    8     3     6    0.0000E+00  0.0000E+00   0.0000E+00  0.000E+00  0.000E+00  0.000E+00  1.06055E+03  0.000E+00  6.145E+00  1.844E-01  1.000E+00
   2    5   10     4     1    1.0000E+01  9.0525E-01   9.0947E+00  0.000E+00  0.000E+00  0.000E+00  1.07835E+03  6.210E-01  1.000E+01  2.500E-01  1.207E+00
   2    5    9     4     2    9.0947E+00  1.7835E+00   7.3113E+00  0.000E+00  0.000E+00  0.000E+00  1.07148E+03  5.670E-01  1.000E+01  5.000E-01  1.189E+00
   2    6    8     4     3    7.3113E+00  1.2257E+00   6.0855E+00  0.000E+00  0.000E+00  0.000E+00  1.06368E+03  5.021E-01  1.000E+01  3.500E-01  1.167E+00
   2    6    8     5     1    6.0855E+00  1.4716E+00   4.6139E+00  0.000E+00  0.000E+00  0.000E+00  1.05854E+03  5.396E-01  1.039E+01  4.158E-01  1.180E+00
   2    7    7     5     2    4.6139E+00  1.4897E+00   3.1242E+00  0.000E+00  0.000E+00  0.000E+00  1.05398E+03  4.817E-01  8.557E+00  4.279E-01  1.161E+00
   2    8    7     5     3    3.1242E+00  8.2855E-01   2.2957E+00  0.000E+00  0.000E+00  0.000E+00  1.04968E+03  4.253E-01  6.911E+00  2.419E-01  1.142E+00
   2    8    6     5     4    2.2957E+00  4.9455E-01   1.8011E+00  0.000E+00  0.000E+00  0.000E+00  1.04664E+03  3.856E-01  5.843E+00  1.461E-01  1.129E+00
   2    9    6     6     1    1.8011E+00  1.8011E+00   0.0000E+00  0.000E+00  0.000E+00  0.000E+00  1.04278E+03  5.669E-02  1.200E+01  6.000E-01  1.019E+00
   2   10    7     6     2    0.0000E+00  0.0000E+00   0.0000E+00  0.000E+00  0.000E+00  0.000E+00  1.03818E+03  0.000E+00  1.200E+01  6.000E-01  1.000E+00
   2   11    7     6     3    0.0000E+00  0.0000E+00   0.0000E+00  0.000E+00  0.000E+00  0.000E+00  1.03364E+03  0.000E+00  1.200E+01  6.000E-01  1.000E+00
   2   12    7     6     4    0.0000E+00  0.0000E+00   0.0000E+00  0.000E+00  0.000E+00  0.000E+00  1.02909E+03  0.000E+00  1.200E+01  6.000E-01  5.403E-01
   2   13    7     6     5    0.0000E+00 -7.4502E-01   7.4502E-01  0.000E+00  0.000E+00  0.000E+00  1.02601E+03  9.787E-02  1.200E+01  2.400E-01 -1.035E+00
   2   14    9     7     1    1.5000E+02  2.8622E+00   1.4714E+02  0.000E+00  0.000E+00  0.000E+00  1.03986E+03  2.284E+00  5.528E+01  5.591E+00  1.706E-01
   2   13    8     7     2    1.4714E+02  3.9186E+00   1.4322E+02  0.000E+00  0.000E+00  0.000E+00  1.03477E+03  2.266E+00  5.520E+01  6.140E+00  2.127E-01
   2   13    7     7     3    1.4322E+02  3.0917E+00   1.4013E+02  0.000E+00  0.000E+00  0.000E+00  1.02967E+03  2.247E+00  5.511E+01  5.573E+00  1.849E-01
   2   13    6     8     1    1.4087E+02  1.2018E+00   1.3967E+02  0.000E+00  0.000E+00  0.000E+00  1.02462E+03  2.747E+00  3.983E+01  4.059E+00  9.870E-02
   2   13    5     8     2    1.3967E+02 -2.0149E+00   1.4169E+02  0.000E+00  0.000E+00  0.000E+00  1.01837E+03  2.750E+00  3.987E+01  4.063E+00 -1.653E-01
   2   13    4     8     3    1.4169E+02 -5.0592E+00   1.4674E+02  0.000E+00  0.000E+00  0.000E+00  1.01215E+03  2.776E+00  4.025E+01  4.101E+00 -4.112E-01
   2   13    3     8     4    1.4674E+02 -5.8098E+00   1.5255E+02  0.000E+00  0.000E+00  0.000E+00  1.00594E+03  2.814E+00  4.081E+01  4.159E+00 -4.657E-01
   2   13    2     8     5    1.5255E+02 -3.4992E+00   1.5605E+02  0.000E+00  0.000E+00  0.000E+00  9.99722E+02  2.847E+00  4.128E+01  4.207E+00 -2.773E-01
   2   13    1     8     6    1.5605E+02 -2.3092E+00   1.5836E+02  0.000E+00  0.000E+00  0.000E+00  9.94742E+02  2.867E+00  4.157E+01  2.542E+00 -3.029E-01
   2    4    5     9     1    0.0000E+00  0.0000E+00   0.0000E+00  0.000E+00  0.000E+00  0.000E+00  1.06000E+03  0.000E+00  2.000E+01  2.000E-03  1.000E+00
   2    4    5    10     1    0.0000E+00  0.0000E+00   0.0000E+00  0.000E+00  0.000E+00  0.000E+00  1.08000E+03  0.000E+00  2.000E+01  2.000E-03  1.000E+00



 ..........LAKE  1 IS DRY..........

     SECTIONS OF THE LAKE BOTTOM HAVE BECOME DRY.  THE DRYSECTIONS
     LIE ABOVE THE FOLLOWING  1 AQUIFER CELLS (LAYER,ROW,COLUMN):
     (  2,  4,  5)  (

 PERIOD     3     TIME STEP    15     TIME STEP LENGTH  1.7520E+05
 PERIOD TIME  2.6280E+06     TOTAL SIMULATION TIME  7.8840E+06


                 HYDROLOGIC BUDGET SUMMARIES FOR SIMULATED LAKES
     (ALL FLUID FLUXES ARE VOLUMES ADDED TO THE LAKE DURING PRESENT TIME STEP)
     ----------------------------------------------------------------------------------------
 LAKE    STAGE         VOLUME     VOL. CHANGE      PRECIP     EVAPORATION    SPECIFIED RUNOFF     COMPUTED RUNOFF    TOTAL RUNOFF
   1  1.074500E+03  0.000000E+00  0.000000E+00  0.000000E+00  0.000000E+00   0.000000E+00          0.000000E+00      0.000000E+00

            GROUND WATER            SURFACE WATER        WATER          UZF INFIL.
 LAKE    INFLOW     OUTFLOW      INFLOW     OUTFLOW       USE        FROM LAKE
   1  0.0000E+00  0.0000E+00  0.0000E+00  0.0000E+00  0.0000E+00       0.0000E+00

      CONNECTED LAKE   TIME-STEP         STAGE-CHANGE          PERCENT
 LAKE    INFLUX      SURFACE AREA   TIME STEP  CUMULATIVE    DISCREPANCY
   1   0.0000E+00     0.0000E+00   0.0000E+00  0.0000E+00       0.000
 --------------------------------------------------------------------------------



            CUMULATIVE HYDROLOGIC BUDGET SUMMARIES FOR SIMULATED LAKES
     (ALL FLUID FLUXES ARE SUMS OF VOLUMES ADDED TO THE LAKE SINCE INITIAL TIME)
     ---------------------------------------------------------------------------
 LAKE       PRECIP       EVAP     SPECIFIED RUNOFF   COMPUTED RUNOFF   TOTAL RUNOFF
   1     0.0000E+00  0.0000E+00       0.0000E+00       0.0000E+00       0.0000E+00

            GROUND WATER            SURFACE WATER       UZF INFIL.
 LAKE    INFLOW     OUTFLOW      INFLOW     OUTFLOW     FROM LAKE
   1  0.0000E+00  0.0000E+00  0.0000E+00  0.0000E+00    0.0000E+00

         WATER    CONNECTED LAKE   CHANGE       PERCENT
 LAKE     USE         INFLUX       IN VOL.    DISCREPANCY
   1   0.0000E+00   0.0000E+00   0.0000E+00      0.000
 --------------------------------------------------------------------------------

 UBDSV3 SAVING "           GW ET" ON UNIT  61 AT TIME STEP 15, STRESS PERIOD 3
 UBDSV3 SAVING "    UZF RECHARGE" ON UNIT  61 AT TIME STEP 15, STRESS PERIOD 3
 UBDSV3 SAVING " SURFACE LEAKAGE" ON UNIT  61 AT TIME STEP 15, STRESS PERIOD 3


UNSATURATED ZONE PACKAGE VOLUMETRIC BUDGET FOR  TIME STEP    15 STRESS PERIOD    3
  ------------------------------------------------------------------------------



     CUMULATIVE VOLUMES      L**3       RATES FOR THIS TIME STEP      L**3/T
     ------------------                 ------------------------

           IN:                                      IN:
           ---                                      ---
        INFILTRATION =   401939460.0000          INFILTRATION =          84.5000

          OUT:                                     OUT:
          ----                                     ----
              UZF ET =   521620811.4823                UZF ET =          62.6255
        UZF RECHARGE =   179968074.2454          UZF RECHARGE =          23.4979

            IN - OUT =  -299649425.7277              IN - OUT =          -1.6234

          STORAGE:                                 STORAGE:
          --------                                 --------
      STORAGE CHANGE =  -299563191.9683        STORAGE CHANGE =          -1.6140

 PERCENT DISCREPANCY IS DIFFERENCE BETWEEN IN-OUT MINUS CHANGE IN STORAGE
 DIVIDED BY THE AVERAGE OF IN AND OUT TIMES 100

 PERCENT DISCREPANCY =          -0.00     PERCENT DISCREPANCY =          -0.01






1
              HEAD IN LAYER 1 AT END OF TIME STEP 15 IN STRESS PERIOD 3
  ---------------------------------------------------------------------------

           1       2       3       4       5       6       7       8       9      10
 ...................................................................................
   1  6999.00 6999.00 6999.00 6999.00 6999.00 6999.00 6999.00 6999.00 6999.00 6999.00
   2  6999.00 6999.00 6999.00 6999.00 6999.00 6999.00 6999.00 6999.00 6999.00 6999.00
   3  6999.00 6999.00 6999.00 6999.00 6999.00 6999.00 6999.00 6999.00 6999.00 6999.00
   4  6999.00 6999.00 6999.00 6999.00 6999.00 6999.00 6999.00 6999.00 6999.00 6999.00
   5  6999.00 6999.00 6999.00 6999.00 6999.00 6999.00 6999.00 6999.00 6999.00 6999.00
   6  6999.00 6999.00 6999.00 6999.00 6999.00 6999.00 6999.00 6999.00 6999.00 6999.00
   7  6999.00 6999.00 6999.00 6999.00 6999.00 6999.00 6999.00 6999.00 6999.00 6999.00
   8  6999.00 6999.00 6999.00 6999.00 6999.00 6999.00 6999.00 6999.00 6999.00 6999.00
   9  6999.00 6999.00 6999.00 6999.00 6999.00 6999.00 6999.00 6999.00 6999.00 6999.00
  10  6999.00 6999.00 6999.00 6999.00 6999.00 6999.00 6999.00 6999.00 6999.00 6999.00
  11  6999.00 6999.00 6999.00 6999.00 6999.00 6999.00 6999.00 6999.00 6999.00 6999.00
  12  6999.00 6999.00 6999.00 6999.00 6999.00 6999.00 6999.00 6999.00 6999.00 6999.00
  13  6999.00 6999.00 6999.00 6999.00 6999.00 6999.00 6999.00 6999.00 6999.00 6999.00
  14  6999.00 6999.00 6999.00 6999.00 6999.00 6999.00 6999.00 6999.00 6999.00 6999.00
  15  6999.00 6999.00 6999.00 6999.00 6999.00 6999.00 6999.00 6999.00 6999.00 6999.00
1
              HEAD IN LAYER 2 AT END OF TIME STEP 15 IN STRESS PERIOD 3
  ---------------------------------------------------------------------------

           1       2       3       4       5       6       7       8       9      10
 ...................................................................................
   1  1090.81 1085.47 6999.00 6999.00 6999.00 6999.00 6999.00 6999.00 6999.00 6999.00
   2  1085.79 1079.59 1072.73 6999.00 6999.00 1063.22 1063.22 1062.97 6999.00 6999.00
   3  6999.00 1069.29 1065.49 1061.59 1062.20 1062.87 1063.22 1061.88 6999.00 6999.00
   4  1057.82 1060.04 1058.68 1055.40 1054.25 1053.42 1054.94 1059.02 1057.94 6999.00
   5  1053.66 1053.08 1051.59 1049.71 1049.42 1049.65 1049.86 1051.62 1055.04 1057.24
   6  1049.49 1047.81 1045.91 1044.49 1044.64 1045.83 1047.17 1049.39 1052.22 1056.41
   7  1046.48 1042.97 1040.94 1039.79 1040.30 1041.88 1043.92 1046.22 1048.88 6999.00
   8  6999.00 1037.80 1036.34 1035.44 1036.08 1037.78 1039.56 1042.82 1044.16 6999.00
   9  6999.00 1032.15 1031.44 1031.02 1031.87 1033.78 1034.92 1037.15 1039.34 6999.00
  10  6999.00 1026.49 1026.52 1026.90 1028.08 1029.91 1031.06 1033.02 1035.45 1035.91
  11  6999.00 1019.55 1020.41 1022.95 1024.90 1027.06 1028.70 1030.91 1034.04 6999.00
  12  1003.10 1009.47 1013.61 1018.00 1021.53 1024.93 1027.47 1030.69 1034.58 6999.00
  13   995.65 1000.55 1007.34 1013.38 1018.87 1024.33 1029.11 1034.13 1036.69 6999.00
  14  6999.00 1006.64 1009.95 1014.75 1019.76 1024.61 1029.74 1035.14 1039.35 6999.00
  15  6999.00 6999.00 1014.10 1016.96 1020.71 1024.09 6999.00 6999.00 6999.00 6999.00

 HEAD WILL BE SAVED ON UNIT   58 AT END OF TIME STEP   15, STRESS PERIOD    3
1
  VOLUMETRIC BUDGET FOR ENTIRE MODEL AT END OF TIME STEP   15, STRESS PERIOD   3
  ------------------------------------------------------------------------------

     CUMULATIVE VOLUMES      L**3       RATES FOR THIS TIME STEP      L**3/T
     ------------------                 ------------------------

           IN:                                      IN:
           ---                                      ---
             STORAGE     =     9878615.0000               STORAGE     =           0.4190
       CONSTANT HEAD     =           0.0000         CONSTANT HEAD     =           0.0000
               WELLS     =           0.0000                 WELLS     =           0.0000
     HEAD DEP BOUNDS     =     1695164.3750       HEAD DEP BOUNDS     =           0.2146
      STREAM LEAKAGE     =   373541600.0000        STREAM LEAKAGE     =          44.9533
       LAKE  SEEPAGE     =           0.0000         LAKE  SEEPAGE     =           0.0000
        UZF RECHARGE     =   179968064.0000          UZF RECHARGE     =          23.4979
               GW ET     =           0.0000                 GW ET     =           0.0000
     SURFACE LEAKAGE     =           0.0000       SURFACE LEAKAGE     =           0.0000

                TOTAL IN =   565083456.0000                  TOTAL IN =          69.0848

          OUT:                                     OUT:
          ----                                     ----
             STORAGE     =   189933616.0000               STORAGE     =          26.6261
       CONSTANT HEAD     =           0.0000         CONSTANT HEAD     =           0.0000
               WELLS     =   131400000.0000                 WELLS     =          10.0000
     HEAD DEP BOUNDS     =     2272381.7500       HEAD DEP BOUNDS     =           0.2907
      STREAM LEAKAGE     =   143532512.0000        STREAM LEAKAGE     =          19.4373
       LAKE  SEEPAGE     =           0.0000         LAKE  SEEPAGE     =           0.0000
        UZF RECHARGE     =           0.0000          UZF RECHARGE     =           0.0000
               GW ET     =    97938488.0000                 GW ET     =          12.7307
     SURFACE LEAKAGE     =           0.0000       SURFACE LEAKAGE     =           0.0000

               TOTAL OUT =   565076992.0000                 TOTAL OUT =          69.0848

                IN - OUT =        6464.0000                  IN - OUT =      -1.5259E-05

     PERCENT DISCREPANCY =           0.00         PERCENT DISCREPANCY =          -0.00






         TIME SUMMARY AT END OF TIME STEP   15 IN STRESS PERIOD    3
                    SECONDS     MINUTES      HOURS       DAYS        YEARS
                    -----------------------------------------------------------
   TIME STEP LENGTH 1.75200E+05  2920.0      48.667      2.0278     5.55175E-03
 STRESS PERIOD TIME 2.62800E+06  43800.      730.00      30.417     8.32763E-02
         TOTAL TIME 7.88400E+06 1.31400E+05  2190.0      91.250     0.24983    
1
1
                            STRESS PERIOD NO.    4, LENGTH =   2628000.    
                            -----------------------------------------------

                              NUMBER OF TIME STEPS =    15

                               MULTIPLIER FOR DELT =     1.000

                            INITIAL TIME STEP SIZE =   175200.0    

 WELL NO.  LAYER   ROW   COL   STRESS RATE         
 --------------------------------------------------
      1      2      6      4      -1.000    
      2      2      6      5      -1.000    
      3      2      7      4      -1.000    
      4      2      7      5      -1.000    
      5      2      8      4      -1.000    
      6      2      8      5      -1.000    
      7      2      9      4      -1.000    
      8      2      9      5      -1.000    
      9      2     10      4      -1.000    
     10      2     10      5      -1.000    

     10 WELLS

 REUSING NON-PARAMETER GHB CELLS FROM LAST STRESS PERIOD

      2 GHB CELLS

 REUSING STREAM SEGMENT DATA FROM LAST STRESS PERIOD



            AREAL INFILTRATION RATE
 READING ON UNIT   19 WITH FORMAT: (10F4.0)            

            1           2           3           4           5           6           7           8           9          10
 ........................................................................................................................
   1   2.0000E-08  4.0000E-08   0.000       0.000       0.000       0.000       0.000       0.000       0.000       0.000    
   2   4.0000E-08  2.0000E-08  4.0000E-08   0.000       0.000      1.6000E-07  1.6000E-07  1.0000E-07   0.000       0.000    
   3    0.000      1.0000E-07  2.0000E-08  2.0000E-08  1.6000E-07  1.6000E-07  1.0000E-07  1.0000E-07   0.000       0.000    
   4   1.6000E-07  1.0000E-07  2.0000E-08  2.0000E-08  2.0000E-08  2.0000E-08  2.0000E-08  2.0000E-08  4.0000E-08   0.000    
   5   1.6000E-07  1.0000E-07  2.0000E-08  2.0000E-08  2.0000E-08  2.0000E-08  2.0000E-08  2.0000E-08  2.0000E-08  2.0000E-08
   6   1.6000E-07  1.0000E-07  1.0000E-07  4.0000E-08  4.0000E-08  2.0000E-08  2.0000E-08  2.0000E-08  2.0000E-08  1.0000E-07
   7   1.6000E-07  1.0000E-07  1.0000E-07  4.0000E-08  4.0000E-08  2.0000E-08  2.0000E-08  4.0000E-08  4.0000E-08   0.000    
   8    0.000      1.0000E-07  1.0000E-07  4.0000E-08  4.0000E-08  2.0000E-08  2.0000E-08  4.0000E-08  1.0000E-07   0.000    
   9    0.000      1.0000E-07  1.0000E-07  4.0000E-08  4.0000E-08  2.0000E-08  2.0000E-08  4.0000E-08  1.0000E-07   0.000    
  10    0.000      1.0000E-07  1.0000E-07  4.0000E-08  4.0000E-08  2.0000E-08  2.0000E-08  4.0000E-08  1.0000E-07  1.6000E-07
  11    0.000      2.0000E-08  2.0000E-08  2.0000E-08  2.0000E-08  2.0000E-08  2.0000E-08  4.0000E-08  1.0000E-07   0.000    
  12   2.0000E-08  2.0000E-08  2.0000E-08  2.0000E-08  2.0000E-08  2.0000E-08  2.0000E-08  2.0000E-08  4.0000E-08   0.000    
  13   2.0000E-08  2.0000E-08  4.0000E-08  4.0000E-08  4.0000E-08  4.0000E-08  4.0000E-08  2.0000E-08  2.0000E-08   0.000    
  14    0.000      4.0000E-08  1.0000E-07  1.0000E-07  1.0000E-07  1.0000E-07  1.0000E-07  4.0000E-08  2.0000E-08   0.000    
  15    0.000       0.000      1.6000E-07  1.6000E-07  1.6000E-07  1.6000E-07   0.000       0.000       0.000       0.000    

USING ET RATE FROM PREVIOUS STRESS PERIOD. CURRENT PERIOD IS:       4

 USING ET EXTINCTION DEPTH FROM PREVIOUS STRESS PERIOD. CURRENT PERIOD IS:       4

 USING EXTINCTION WATER CONTENT FROM PREVIOUS STRESS PERIOD. CURRENT PERIOD IS:       4




 If any subsequent steady-state stress periods, min. and max. stages for each lake will be read in Record 9a.




 REUSING LAKE CONFIGURATION DATA FROM LAST STRESS PERIOD


 LAKE       PRECIP     EVAP     RUNOFF   WITHDRAW   BOTTOM     AREA
----------------------------------------------------------------------
   1     0.000E+00 4.000E-08 0.000E+00  0.000E+00 1.074E+03 2.500E+07




         C               INTERFACE CONDUCTANCES BETWEEN LAKE AND AQUIFER CELLS
   L     O          (IF TYPE = 6, CONDUCTANCE (L^2/T) IS BETWEEN AQUIFER CELL AND OVERLYING LAKE CELL.)
   A     L  L  T    (IF TYPE = 1 TO 4, CONDUCTANCES ARE PER UNIT SATURATED THICKNESS (L/T).)
   Y  R  U  A  Y
   E  O  M  K  P                        LAKEBED      C O N D U C T A N C E S
   R  W  N  E  E     DELTA Y   DELTA X  LEAKANCE   LAKEBED   AQUIFER  COMBINED
 _______________________________________________________________________________
   1  4  4  1  2    5.00E+03  5.00E+03  5.00E-02  2.50E+02  6.00E-03  6.00E-03
   1  3  5  1  3    5.00E+03  5.00E+03  5.00E-02  2.50E+02  1.20E-03  1.20E-03
   2  4  5  1  6    5.00E+03  5.00E+03  5.00E-02  1.25E+06  9.42E+00  9.42E+00
   1  5  5  1  4    5.00E+03  5.00E+03  5.00E-02  2.50E+02  6.00E-03  6.00E-03
   1  4  6  1  1    5.00E+03  5.00E+03  5.00E-02  2.50E+02  6.00E-03  6.00E-03
 
      DEAD POOL STORAGE FOR LAKE    1 BELOW SEGMENT   10 IS EQUAL TO     0.1200000000E+09
 
      LAKE     INFLOWING STREAM SEGMENT
         1                  9

 MAXIMUM NUMBER OF STREAMS INFLOWING TO A LAKE IS    1

      LAKE     OUTFLOWING STREAM SEGMENT
         1                 10

 MAXIMUM NUMBER OF STREAMS OUTFLOWING FROM A LAKE IS    1

 
 SOLVING FOR HEAD 
                                                   Max.-Head-Change                         Max.-Flux-Residual
  Residual-Control   Outer-Iter.   Inner-Iter.     Column Row Layer    Maximum-Head-Change  Column Row Layer    Maximum-Flux-Residual          L2-NORM 
          0                 1           2            10   10     2       0.4681485852E-01       4    8    2         0.8752230240E+00      0.3338316261E+01
          0                 2           2             4    8     2      -0.1465457404E-02       4    8    2        -0.4048933925E-01      0.1223609067E+00
          0                 3           1             6   11     2       0.3434716378E-04       6   11    2         0.1025109184E-02      0.2623191190E-02

    ------------------------------------------------
       NWT REQUIRED            3 OUTER ITERATIONS 
       AND A TOTAL OF          5 INNER ITERATIONS.
    ------------------------------------------------

 NO OUTPUT CONTROL FOR STRESS PERIOD    4   TIME STEP    1
 ..........LAKE  1 IS DRY..........
 
 SOLVING FOR HEAD 
                                                   Max.-Head-Change                         Max.-Flux-Residual
  Residual-Control   Outer-Iter.   Inner-Iter.     Column Row Layer    Maximum-Head-Change  Column Row Layer    Maximum-Flux-Residual          L2-NORM 
          0                 1           2            10   10     2       0.4674119138E-01       4    8    2         0.8559886414E+00      0.3302758954E+01
          0                 2           2             4    8     2      -0.1433776930E-02       4    8    2        -0.3961294070E-01      0.1212849423E+00
          0                 3           1             6   11     2       0.3537258168E-04       6   11    2         0.1053612358E-02      0.2733371785E-02

    ------------------------------------------------
       NWT REQUIRED            3 OUTER ITERATIONS 
       AND A TOTAL OF          5 INNER ITERATIONS.
    ------------------------------------------------

 NO OUTPUT CONTROL FOR STRESS PERIOD    4   TIME STEP    2
 ..........LAKE  1 IS DRY..........
 
 SOLVING FOR HEAD 
                                                   Max.-Head-Change                         Max.-Flux-Residual
  Residual-Control   Outer-Iter.   Inner-Iter.     Column Row Layer    Maximum-Head-Change  Column Row Layer    Maximum-Flux-Residual          L2-NORM 
          0                 1           2            10   10     2       0.4631009321E-01       4    8    2         0.8369120335E+00      0.3197941992E+01
          0                 2           2             4    8     2      -0.1401863303E-02       4    8    2        -0.3873291230E-01      0.1200561612E+00
          0                 3           1             6   11     2       0.3628161578E-04       6   11    2         0.1080339203E-02      0.2842728417E-02

    ------------------------------------------------
       NWT REQUIRED            3 OUTER ITERATIONS 
       AND A TOTAL OF          5 INNER ITERATIONS.
    ------------------------------------------------

 NO OUTPUT CONTROL FOR STRESS PERIOD    4   TIME STEP    3
 ..........LAKE  1 IS DRY..........
 
 SOLVING FOR HEAD 
                                                   Max.-Head-Change                         Max.-Flux-Residual
  Residual-Control   Outer-Iter.   Inner-Iter.     Column Row Layer    Maximum-Head-Change  Column Row Layer    Maximum-Flux-Residual          L2-NORM 
          0                 1           2             6    3     2       0.1622602301E+00       6    3    2         0.2197514093E+01      0.3973146678E+01
          0                 2           2             6    3     2       0.1067769717E-01       6    3    2         0.1453363175E+00      0.1958095213E+00
          0                 3           1             6    3     2       0.6970067558E-03       6    3    2         0.9495143125E-02      0.1028317316E-01

    ------------------------------------------------
       NWT REQUIRED            3 OUTER ITERATIONS 
       AND A TOTAL OF          5 INNER ITERATIONS.
    ------------------------------------------------

 NO OUTPUT CONTROL FOR STRESS PERIOD    4   TIME STEP    4
 ..........LAKE  1 IS DRY..........
 
 SOLVING FOR HEAD 
                                                   Max.-Head-Change                         Max.-Flux-Residual
  Residual-Control   Outer-Iter.   Inner-Iter.     Column Row Layer    Maximum-Head-Change  Column Row Layer    Maximum-Flux-Residual          L2-NORM 
          0                 1           2             6    3     2       0.1840857546E+00       6    3    2         0.2468281431E+01      0.4787927054E+01
          0                 2           2             6    3     2       0.1184762903E-01       6    3    2         0.1606640447E+00      0.2555310174E+00
          0                 3           1             6    3     2       0.7798128560E-03       6    3    2         0.1059506898E-01      0.1443075784E-01

    ------------------------------------------------
       NWT REQUIRED            3 OUTER ITERATIONS 
       AND A TOTAL OF          5 INNER ITERATIONS.
    ------------------------------------------------

 OUTPUT CONTROL FOR STRESS PERIOD    4   TIME STEP    5
    PRINT BUDGET
    SAVE BUDGET

            WELLS   PERIOD    4   STEP   5
 WELL      1   LAYER   2   ROW     6   COL     4   RATE    -1.00000    
 WELL      2   LAYER   2   ROW     6   COL     5   RATE    -1.00000    
 WELL      3   LAYER   2   ROW     7   COL     4   RATE    -1.00000    
 WELL      4   LAYER   2   ROW     7   COL     5   RATE    -1.00000    
 WELL      5   LAYER   2   ROW     8   COL     4   RATE    -1.00000    
 WELL      6   LAYER   2   ROW     8   COL     5   RATE    -1.00000    
 WELL      7   LAYER   2   ROW     9   COL     4   RATE    -1.00000    
 WELL      8   LAYER   2   ROW     9   COL     5   RATE    -1.00000    
 WELL      9   LAYER   2   ROW    10   COL     4   RATE    -1.00000    
 WELL     10   LAYER   2   ROW    10   COL     5   RATE    -1.00000    

  HEAD DEP BOUNDS   PERIOD    4   STEP     5
 BOUNDARY      1   LAYER   2   ROW    13   COL     1   RATE   -0.291889    
 BOUNDARY      2   LAYER   2   ROW    14   COL     9   RATE    0.214573    



 STREAM LISTING     PERIOD      4   STEP        5

 LAYER ROW COL. STREAM  RCH.  FLOW INTO     FLOW TO   FLOW OUT OF   OVRLND.     DIRECT     STREAM       STREAM     STREAM     STREAM   STREAMBED  STREAMBED
                SEG.NO.  NO.  STRM. RCH.    AQUIFER    STRM. RCH.    RUNOFF     PRECIP       ET          HEAD       DEPTH      WIDTH   CONDCTNC.   GRADIENT

   2    1    1     1     1    2.4000E+01  1.9380E+00   2.2062E+01  0.000E+00  0.000E+00  0.000E+00  1.09420E+03  1.150E+00  1.266E+01  5.698E-01  1.134E+00
   2    2    2     1     2    2.2062E+01  3.4701E+00   1.8592E+01  0.000E+00  0.000E+00  0.000E+00  1.08916E+03  1.106E+00  1.207E+01  8.452E-01  1.369E+00
   2    3    3     1     3    1.8592E+01  2.7105E+00   1.5881E+01  0.000E+00  0.000E+00  0.000E+00  1.08347E+03  1.054E+00  1.114E+01  6.687E-01  1.351E+00
   2    3    4     1     4    1.5881E+01  2.2923E+00   1.3589E+01  0.000E+00  0.000E+00  0.000E+00  1.07841E+03  1.007E+00  1.031E+01  5.721E-01  1.336E+00
   2    4    5     2     1    3.5891E+00  2.5654E+00   1.0236E+00  0.000E+00  0.000E+00  0.000E+00  1.07222E+03  2.890E-01  1.200E+01  7.800E-01  1.096E+00
   2    5    6     2     2    1.0236E+00  1.0236E+00   0.0000E+00  0.000E+00  0.000E+00  0.000E+00  1.06655E+03  3.994E-02  1.200E+01  6.000E-01  1.013E+00
   2    6    6     2     3    0.0000E+00  0.0000E+00   0.0000E+00  0.000E+00  0.000E+00  0.000E+00  1.06179E+03  0.000E+00  1.200E+01  6.000E-01  1.000E+00
   2    7    6     2     4    0.0000E+00  0.0000E+00   0.0000E+00  0.000E+00  0.000E+00  0.000E+00  1.05708E+03  0.000E+00  1.200E+01  6.000E-01  1.000E+00
   2    8    6     2     5    0.0000E+00  0.0000E+00   0.0000E+00  0.000E+00  0.000E+00  0.000E+00  1.05236E+03  0.000E+00  1.200E+01  6.000E-01  1.000E+00
   2    3    5     3     1    1.0000E+01  2.8252E+00   7.1748E+00  0.000E+00  0.000E+00  0.000E+00  1.07555E+03  1.909E+00  9.636E+00  7.227E-01  1.955E+00
   2    3    6     3     2    7.1748E+00  2.4905E+00   4.6843E+00  0.000E+00  0.000E+00  0.000E+00  1.07264E+03  1.727E+00  8.909E+00  6.682E-01  1.864E+00
   2    3    7     3     3    4.6843E+00  1.9718E+00   2.7125E+00  0.000E+00  0.000E+00  0.000E+00  1.06987E+03  1.555E+00  8.218E+00  5.547E-01  1.777E+00
   2    4    8     3     4    2.7125E+00  2.2567E+00   4.5579E-01  0.000E+00  0.000E+00  0.000E+00  1.06682E+03  1.364E+00  7.455E+00  6.709E-01  1.682E+00
   2    5    8     3     5    4.5579E-01  4.5579E-01   0.0000E+00  0.000E+00  0.000E+00  0.000E+00  1.06362E+03  0.000E+00  6.655E+00  4.991E-01  1.582E+00
   2    6    8     3     6    0.0000E+00  0.0000E+00   0.0000E+00  0.000E+00  0.000E+00  0.000E+00  1.06055E+03  0.000E+00  6.145E+00  1.844E-01  1.000E+00
   2    5   10     4     1    1.0000E+01  9.0525E-01   9.0947E+00  0.000E+00  0.000E+00  0.000E+00  1.07835E+03  6.210E-01  1.000E+01  2.500E-01  1.207E+00
   2    5    9     4     2    9.0947E+00  1.7835E+00   7.3113E+00  0.000E+00  0.000E+00  0.000E+00  1.07148E+03  5.670E-01  1.000E+01  5.000E-01  1.189E+00
   2    6    8     4     3    7.3113E+00  1.2257E+00   6.0855E+00  0.000E+00  0.000E+00  0.000E+00  1.06368E+03  5.021E-01  1.000E+01  3.500E-01  1.167E+00
   2    6    8     5     1    6.0855E+00  1.4716E+00   4.6139E+00  0.000E+00  0.000E+00  0.000E+00  1.05854E+03  5.396E-01  1.039E+01  4.158E-01  1.180E+00
   2    7    7     5     2    4.6139E+00  1.4897E+00   3.1242E+00  0.000E+00  0.000E+00  0.000E+00  1.05398E+03  4.817E-01  8.557E+00  4.279E-01  1.161E+00
   2    8    7     5     3    3.1242E+00  8.2855E-01   2.2957E+00  0.000E+00  0.000E+00  0.000E+00  1.04968E+03  4.253E-01  6.911E+00  2.419E-01  1.142E+00
   2    8    6     5     4    2.2957E+00  4.9455E-01   1.8011E+00  0.000E+00  0.000E+00  0.000E+00  1.04664E+03  3.856E-01  5.843E+00  1.461E-01  1.129E+00
   2    9    6     6     1    1.8011E+00  1.8011E+00   0.0000E+00  0.000E+00  0.000E+00  0.000E+00  1.04278E+03  5.669E-02  1.200E+01  6.000E-01  1.019E+00
   2   10    7     6     2    0.0000E+00  0.0000E+00   0.0000E+00  0.000E+00  0.000E+00  0.000E+00  1.03818E+03  0.000E+00  1.200E+01  6.000E-01  1.000E+00
   2   11    7     6     3    0.0000E+00  0.0000E+00   0.0000E+00  0.000E+00  0.000E+00  0.000E+00  1.03364E+03  0.000E+00  1.200E+01  6.000E-01  1.000E+00
   2   12    7     6     4    0.0000E+00  0.0000E+00   0.0000E+00  0.000E+00  0.000E+00  0.000E+00  1.02909E+03  0.000E+00  1.200E+01  6.000E-01  5.361E-01
   2   13    7     6     5    0.0000E+00 -7.5170E-01   7.5170E-01  0.000E+00  0.000E+00  0.000E+00  1.02601E+03  9.840E-02  1.200E+01  2.400E-01 -1.044E+00
   2   14    9     7     1    1.5000E+02  2.8572E+00   1.4714E+02  0.000E+00  0.000E+00  0.000E+00  1.03986E+03  2.284E+00  5.528E+01  5.591E+00  1.703E-01
   2   13    8     7     2    1.4714E+02  3.9051E+00   1.4324E+02  0.000E+00  0.000E+00  0.000E+00  1.03477E+03  2.266E+00  5.520E+01  6.140E+00  2.120E-01
   2   13    7     7     3    1.4324E+02  2.9369E+00   1.4030E+02  0.000E+00  0.000E+00  0.000E+00  1.02967E+03  2.247E+00  5.511E+01  5.573E+00  1.757E-01
   2   13    6     8     1    1.4105E+02  1.0517E+00   1.4000E+02  0.000E+00  0.000E+00  0.000E+00  1.02462E+03  2.749E+00  3.986E+01  4.062E+00  8.631E-02
   2   13    5     8     2    1.4000E+02 -2.2383E+00   1.4224E+02  0.000E+00  0.000E+00  0.000E+00  1.01838E+03  2.753E+00  3.992E+01  4.068E+00 -1.834E-01
   2   13    4     8     3    1.4224E+02 -5.3087E+00   1.4755E+02  0.000E+00  0.000E+00  0.000E+00  1.01216E+03  2.780E+00  4.032E+01  4.108E+00 -4.307E-01
   2   13    3     8     4    1.4755E+02 -6.0471E+00   1.5359E+02  0.000E+00  0.000E+00  0.000E+00  1.00595E+03  2.821E+00  4.090E+01  4.168E+00 -4.836E-01
   2   13    2     8     5    1.5359E+02 -3.5202E+00   1.5712E+02  0.000E+00  0.000E+00  0.000E+00  9.99729E+02  2.854E+00  4.138E+01  4.217E+00 -2.782E-01
   2   13    1     8     6    1.5712E+02 -2.3749E+00   1.5949E+02  0.000E+00  0.000E+00  0.000E+00  9.94749E+02  2.874E+00  4.168E+01  2.548E+00 -3.107E-01
   2    4    5     9     1    0.0000E+00  0.0000E+00   0.0000E+00  0.000E+00  0.000E+00  0.000E+00  1.06000E+03  0.000E+00  2.000E+01  2.000E-03  1.000E+00
   2    4    5    10     1    0.0000E+00  0.0000E+00   0.0000E+00  0.000E+00  0.000E+00  0.000E+00  1.08000E+03  0.000E+00  2.000E+01  2.000E-03  1.000E+00



 ..........LAKE  1 IS DRY..........

     SECTIONS OF THE LAKE BOTTOM HAVE BECOME DRY.  THE DRYSECTIONS
     LIE ABOVE THE FOLLOWING  1 AQUIFER CELLS (LAYER,ROW,COLUMN):
     (  2,  4,  5)  (

 PERIOD     4     TIME STEP     5     TIME STEP LENGTH  1.7520E+05
 PERIOD TIME  8.7600E+05     TOTAL SIMULATION TIME  8.7600E+06


                 HYDROLOGIC BUDGET SUMMARIES FOR SIMULATED LAKES
     (ALL FLUID FLUXES ARE VOLUMES ADDED TO THE LAKE DURING PRESENT TIME STEP)
     ----------------------------------------------------------------------------------------
 LAKE    STAGE         VOLUME     VOL. CHANGE      PRECIP     EVAPORATION    SPECIFIED RUNOFF     COMPUTED RUNOFF    TOTAL RUNOFF
   1  1.074500E+03  0.000000E+00  0.000000E+00  0.000000E+00  0.000000E+00   0.000000E+00          0.000000E+00      0.000000E+00

            GROUND WATER            SURFACE WATER        WATER          UZF INFIL.
 LAKE    INFLOW     OUTFLOW      INFLOW     OUTFLOW       USE        FROM LAKE
   1  0.0000E+00  0.0000E+00  0.0000E+00  0.0000E+00  0.0000E+00       0.0000E+00

      CONNECTED LAKE   TIME-STEP         STAGE-CHANGE          PERCENT
 LAKE    INFLUX      SURFACE AREA   TIME STEP  CUMULATIVE    DISCREPANCY
   1   0.0000E+00     0.0000E+00   0.0000E+00  0.0000E+00       0.000
 --------------------------------------------------------------------------------



            CUMULATIVE HYDROLOGIC BUDGET SUMMARIES FOR SIMULATED LAKES
     (ALL FLUID FLUXES ARE SUMS OF VOLUMES ADDED TO THE LAKE SINCE INITIAL TIME)
     ---------------------------------------------------------------------------
 LAKE       PRECIP       EVAP     SPECIFIED RUNOFF   COMPUTED RUNOFF   TOTAL RUNOFF
   1     0.0000E+00  0.0000E+00       0.0000E+00       0.0000E+00       0.0000E+00

            GROUND WATER            SURFACE WATER       UZF INFIL.
 LAKE    INFLOW     OUTFLOW      INFLOW     OUTFLOW     FROM LAKE
   1  0.0000E+00  0.0000E+00  0.0000E+00  0.0000E+00    0.0000E+00

         WATER    CONNECTED LAKE   CHANGE       PERCENT
 LAKE     USE         INFLUX       IN VOL.    DISCREPANCY
   1   0.0000E+00   0.0000E+00   0.0000E+00      0.000
 --------------------------------------------------------------------------------

 UBDSV3 SAVING "           GW ET" ON UNIT  61 AT TIME STEP 5, STRESS PERIOD 4
 UBDSV3 SAVING "    UZF RECHARGE" ON UNIT  61 AT TIME STEP 5, STRESS PERIOD 4
 UBDSV3 SAVING " SURFACE LEAKAGE" ON UNIT  61 AT TIME STEP 5, STRESS PERIOD 4


UNSATURATED ZONE PACKAGE VOLUMETRIC BUDGET FOR  TIME STEP     5 STRESS PERIOD    4
  ------------------------------------------------------------------------------



     CUMULATIVE VOLUMES      L**3       RATES FOR THIS TIME STEP      L**3/T
     ------------------                 ------------------------

           IN:                                      IN:
           ---                                      ---
        INFILTRATION =   549983460.0000          INFILTRATION =         169.0000

          OUT:                                     OUT:
          ----                                     ----
              UZF ET =   578047536.8419                UZF ET =          65.5411
        UZF RECHARGE =   202338491.6192          UZF RECHARGE =          29.5077

            IN - OUT =  -230402568.4610              IN - OUT =          73.9513

          STORAGE:                                 STORAGE:
          --------                                 --------
      STORAGE CHANGE =  -230305408.1123        STORAGE CHANGE =          73.9728

 PERCENT DISCREPANCY IS DIFFERENCE BETWEEN IN-OUT MINUS CHANGE IN STORAGE
 DIVIDED BY THE AVERAGE OF IN AND OUT TIMES 100

 PERCENT DISCREPANCY =          -0.00     PERCENT DISCREPANCY =          -0.01






1
  VOLUMETRIC BUDGET FOR ENTIRE MODEL AT END OF TIME STEP    5, STRESS PERIOD   4
  ------------------------------------------------------------------------------

     CUMULATIVE VOLUMES      L**3       RATES FOR THIS TIME STEP      L**3/T
     ------------------                 ------------------------

           IN:                                      IN:
           ---                                      ---
             STORAGE     =    10167500.0000               STORAGE     =           0.3187
       CONSTANT HEAD     =           0.0000         CONSTANT HEAD     =           0.0000
               WELLS     =           0.0000                 WELLS     =           0.0000
     HEAD DEP BOUNDS     =     1883145.1250       HEAD DEP BOUNDS     =           0.2146
      STREAM LEAKAGE     =   412921920.0000        STREAM LEAKAGE     =          44.7508
       LAKE  SEEPAGE     =           0.0000         LAKE  SEEPAGE     =           0.0000
        UZF RECHARGE     =   202338480.0000          UZF RECHARGE     =          29.5077
               GW ET     =           0.0000                 GW ET     =           0.0000
     SURFACE LEAKAGE     =           0.0000       SURFACE LEAKAGE     =           0.0000

                TOTAL IN =   627311040.0000                  TOTAL IN =          74.7918

          OUT:                                     OUT:
          ----                                     ----
             STORAGE     =   214538480.0000               STORAGE     =          31.5291
       CONSTANT HEAD     =           0.0000         CONSTANT HEAD     =           0.0000
               WELLS     =   140160000.0000                 WELLS     =          10.0000
     HEAD DEP BOUNDS     =     2527543.5000       HEAD DEP BOUNDS     =           0.2919
      STREAM LEAKAGE     =   160995040.0000        STREAM LEAKAGE     =          20.2409
       LAKE  SEEPAGE     =           0.0000         LAKE  SEEPAGE     =           0.0000
        UZF RECHARGE     =           0.0000          UZF RECHARGE     =           0.0000
               GW ET     =   109083144.0000                 GW ET     =          12.7284
     SURFACE LEAKAGE     =           0.0000       SURFACE LEAKAGE     =           0.0000

               TOTAL OUT =   627304256.0000                 TOTAL OUT =          74.7903

                IN - OUT =        6784.0000                  IN - OUT =       1.4572E-03

     PERCENT DISCREPANCY =           0.00         PERCENT DISCREPANCY =           0.00






         TIME SUMMARY AT END OF TIME STEP    5 IN STRESS PERIOD    4
                    SECONDS     MINUTES      HOURS       DAYS        YEARS
                    -----------------------------------------------------------
   TIME STEP LENGTH 1.75200E+05  2920.0      48.667      2.0278     5.55175E-03
 STRESS PERIOD TIME 8.76000E+05  14600.      243.33      10.139     2.77588E-02
         TOTAL TIME 8.76000E+06 1.46000E+05  2433.3      101.39     0.27759    
1
 
 SOLVING FOR HEAD 
                                                   Max.-Head-Change                         Max.-Flux-Residual
  Residual-Control   Outer-Iter.   Inner-Iter.     Column Row Layer    Maximum-Head-Change  Column Row Layer    Maximum-Flux-Residual          L2-NORM 
          0                 1           2             6    3     2       0.1769330713E+00       6    3    2         0.2386523590E+01      0.4658609219E+01
          0                 2           2             6    3     2       0.1174722034E-01       6    3    2         0.1594450409E+00      0.2529907171E+00
          0                 3           1             6    3     2       0.7721676222E-03       6    3    2         0.1049219772E-01      0.1428442739E-01

    ------------------------------------------------
       NWT REQUIRED            3 OUTER ITERATIONS 
       AND A TOTAL OF          5 INNER ITERATIONS.
    ------------------------------------------------

 NO OUTPUT CONTROL FOR STRESS PERIOD    4   TIME STEP    6
 ..........LAKE  1 IS DRY..........
 
 SOLVING FOR HEAD 
                                                   Max.-Head-Change                         Max.-Flux-Residual
  Residual-Control   Outer-Iter.   Inner-Iter.     Column Row Layer    Maximum-Head-Change  Column Row Layer    Maximum-Flux-Residual          L2-NORM 
          0                 1           2             6    3     2       0.1704214843E+00       6    3    2         0.2298262869E+01      0.4521311278E+01
          0                 2           2             6    3     2       0.1131313333E-01       6    3    2         0.1536224914E+00      0.2464815554E+00
          0                 3           1             6    3     2       0.7430848154E-03       6    3    2         0.1009918093E-01      0.1376060969E-01

    ------------------------------------------------
       NWT REQUIRED            3 OUTER ITERATIONS 
       AND A TOTAL OF          5 INNER ITERATIONS.
    ------------------------------------------------

 NO OUTPUT CONTROL FOR STRESS PERIOD    4   TIME STEP    7
 ..........LAKE  1 IS DRY..........
 
 SOLVING FOR HEAD 
                                                   Max.-Head-Change                         Max.-Flux-Residual
  Residual-Control   Outer-Iter.   Inner-Iter.     Column Row Layer    Maximum-Head-Change  Column Row Layer    Maximum-Flux-Residual          L2-NORM 
          0                 1           2             6    3     2       0.1641943565E+00       6    3    2         0.2213471221E+01      0.4438370271E+01
          0                 2           2             6    3     2       0.1090100064E-01       6    3    2         0.1480930190E+00      0.2416695227E+00
          0                 3           1             6    3     2       0.7155087418E-03       6    3    2         0.9726234956E-02      0.1327735332E-01

    ------------------------------------------------
       NWT REQUIRED            3 OUTER ITERATIONS 
       AND A TOTAL OF          5 INNER ITERATIONS.
    ------------------------------------------------

 NO OUTPUT CONTROL FOR STRESS PERIOD    4   TIME STEP    8
 ..........LAKE  1 IS DRY..........
 
 SOLVING FOR HEAD 
                                                   Max.-Head-Change                         Max.-Flux-Residual
  Residual-Control   Outer-Iter.   Inner-Iter.     Column Row Layer    Maximum-Head-Change  Column Row Layer    Maximum-Flux-Residual          L2-NORM 
          0                 1           2             6    3     2       0.1582416590E+00       6    3    2         0.2132437191E+01      0.4301018414E+01
          0                 2           2             6    3     2       0.1050669217E-01       6    3    2         0.1428041597E+00      0.2347145054E+00
          0                 3           1             6    3     2       0.6891561261E-03       6    3    2         0.9369379625E-02      0.1281216732E-01

    ------------------------------------------------
       NWT REQUIRED            3 OUTER ITERATIONS 
       AND A TOTAL OF          5 INNER ITERATIONS.
    ------------------------------------------------

 NO OUTPUT CONTROL FOR STRESS PERIOD    4   TIME STEP    9
 ..........LAKE  1 IS DRY..........
 
 SOLVING FOR HEAD 
                                                   Max.-Head-Change                         Max.-Flux-Residual
  Residual-Control   Outer-Iter.   Inner-Iter.     Column Row Layer    Maximum-Head-Change  Column Row Layer    Maximum-Flux-Residual          L2-NORM 
          0                 1           2             6    3     2       0.1528027986E+00       6    3    2         0.2054973913E+01      0.4236445182E+01
          0                 2           2             6    3     2       0.1018582161E-01       6    3    2         0.1383164249E+00      0.2295005609E+00
          0                 3           1             6    3     2       0.6690891066E-03       6    3    2         0.9095683548E-02      0.1245885187E-01

    ------------------------------------------------
       NWT REQUIRED            3 OUTER ITERATIONS 
       AND A TOTAL OF          5 INNER ITERATIONS.
    ------------------------------------------------

 OUTPUT CONTROL FOR STRESS PERIOD    4   TIME STEP   10
    PRINT BUDGET
    SAVE BUDGET

            WELLS   PERIOD    4   STEP  10
 WELL      1   LAYER   2   ROW     6   COL     4   RATE    -1.00000    
 WELL      2   LAYER   2   ROW     6   COL     5   RATE    -1.00000    
 WELL      3   LAYER   2   ROW     7   COL     4   RATE    -1.00000    
 WELL      4   LAYER   2   ROW     7   COL     5   RATE    -1.00000    
 WELL      5   LAYER   2   ROW     8   COL     4   RATE    -1.00000    
 WELL      6   LAYER   2   ROW     8   COL     5   RATE    -1.00000    
 WELL      7   LAYER   2   ROW     9   COL     4   RATE    -1.00000    
 WELL      8   LAYER   2   ROW     9   COL     5   RATE    -1.00000    
 WELL      9   LAYER   2   ROW    10   COL     4   RATE    -1.00000    
 WELL     10   LAYER   2   ROW    10   COL     5   RATE    -1.00000    

  HEAD DEP BOUNDS   PERIOD    4   STEP    10
 BOUNDARY      1   LAYER   2   ROW    13   COL     1   RATE   -0.293002    
 BOUNDARY      2   LAYER   2   ROW    14   COL     9   RATE    0.214488    



 STREAM LISTING     PERIOD      4   STEP       10

 LAYER ROW COL. STREAM  RCH.  FLOW INTO     FLOW TO   FLOW OUT OF   OVRLND.     DIRECT     STREAM       STREAM     STREAM     STREAM   STREAMBED  STREAMBED
                SEG.NO.  NO.  STRM. RCH.    AQUIFER    STRM. RCH.    RUNOFF     PRECIP       ET          HEAD       DEPTH      WIDTH   CONDCTNC.   GRADIENT

   2    1    1     1     1    2.5000E+01  1.9805E+00   2.3019E+01  0.000E+00  0.000E+00  0.000E+00  1.09421E+03  1.165E+00  1.286E+01  5.788E-01  1.140E+00
   2    2    2     1     2    2.3019E+01  3.5424E+00   1.9477E+01  0.000E+00  0.000E+00  0.000E+00  1.08918E+03  1.121E+00  1.228E+01  8.596E-01  1.374E+00
   2    3    3     1     3    1.9477E+01  2.7861E+00   1.6691E+01  0.000E+00  0.000E+00  0.000E+00  1.08349E+03  1.068E+00  1.141E+01  6.848E-01  1.356E+00
   2    3    4     1     4    1.6691E+01  2.3604E+00   1.4331E+01  0.000E+00  0.000E+00  0.000E+00  1.07843E+03  1.022E+00  1.057E+01  5.869E-01  1.341E+00
   2    4    5     2     1    4.3306E+00  2.6054E+00   1.7251E+00  0.000E+00  0.000E+00  0.000E+00  1.07227E+03  3.403E-01  1.200E+01  7.800E-01  1.113E+00
   2    5    6     2     2    1.7251E+00  1.7251E+00   0.0000E+00  0.000E+00  0.000E+00  0.000E+00  1.06656E+03  5.463E-02  1.200E+01  6.000E-01  1.018E+00
   2    6    6     2     3    0.0000E+00  0.0000E+00   0.0000E+00  0.000E+00  0.000E+00  0.000E+00  1.06179E+03  0.000E+00  1.200E+01  6.000E-01  1.000E+00
   2    7    6     2     4    0.0000E+00  0.0000E+00   0.0000E+00  0.000E+00  0.000E+00  0.000E+00  1.05708E+03  0.000E+00  1.200E+01  6.000E-01  1.000E+00
   2    8    6     2     5    0.0000E+00  0.0000E+00   0.0000E+00  0.000E+00  0.000E+00  0.000E+00  1.05236E+03  0.000E+00  1.200E+01  6.000E-01  1.000E+00
   2    3    5     3     1    1.0000E+01  2.8252E+00   7.1748E+00  0.000E+00  0.000E+00  0.000E+00  1.07555E+03  1.909E+00  9.636E+00  7.227E-01  1.955E+00
   2    3    6     3     2    7.1748E+00  2.4905E+00   4.6843E+00  0.000E+00  0.000E+00  0.000E+00  1.07264E+03  1.727E+00  8.909E+00  6.682E-01  1.864E+00
   2    3    7     3     3    4.6843E+00  1.9718E+00   2.7125E+00  0.000E+00  0.000E+00  0.000E+00  1.06987E+03  1.555E+00  8.218E+00  5.547E-01  1.777E+00
   2    4    8     3     4    2.7125E+00  2.2567E+00   4.5579E-01  0.000E+00  0.000E+00  0.000E+00  1.06682E+03  1.364E+00  7.455E+00  6.709E-01  1.682E+00
   2    5    8     3     5    4.5579E-01  4.5579E-01   0.0000E+00  0.000E+00  0.000E+00  0.000E+00  1.06362E+03  0.000E+00  6.655E+00  4.991E-01  1.582E+00
   2    6    8     3     6    0.0000E+00  0.0000E+00   0.0000E+00  0.000E+00  0.000E+00  0.000E+00  1.06055E+03  0.000E+00  6.145E+00  1.844E-01  1.000E+00
   2    5   10     4     1    1.0000E+01  9.0525E-01   9.0947E+00  0.000E+00  0.000E+00  0.000E+00  1.07835E+03  6.210E-01  1.000E+01  2.500E-01  1.207E+00
   2    5    9     4     2    9.0947E+00  1.7835E+00   7.3113E+00  0.000E+00  0.000E+00  0.000E+00  1.07148E+03  5.670E-01  1.000E+01  5.000E-01  1.189E+00
   2    6    8     4     3    7.3113E+00  1.2257E+00   6.0855E+00  0.000E+00  0.000E+00  0.000E+00  1.06368E+03  5.021E-01  1.000E+01  3.500E-01  1.167E+00
   2    6    8     5     1    6.0855E+00  1.4716E+00   4.6139E+00  0.000E+00  0.000E+00  0.000E+00  1.05854E+03  5.396E-01  1.039E+01  4.158E-01  1.180E+00
   2    7    7     5     2    4.6139E+00  1.4897E+00   3.1242E+00  0.000E+00  0.000E+00  0.000E+00  1.05398E+03  4.817E-01  8.557E+00  4.279E-01  1.161E+00
   2    8    7     5     3    3.1242E+00  8.2855E-01   2.2957E+00  0.000E+00  0.000E+00  0.000E+00  1.04968E+03  4.253E-01  6.911E+00  2.419E-01  1.142E+00
   2    8    6     5     4    2.2957E+00  4.9455E-01   1.8011E+00  0.000E+00  0.000E+00  0.000E+00  1.04664E+03  3.856E-01  5.843E+00  1.461E-01  1.129E+00
   2    9    6     6     1    1.8011E+00  1.8011E+00   0.0000E+00  0.000E+00  0.000E+00  0.000E+00  1.04278E+03  5.669E-02  1.200E+01  6.000E-01  1.019E+00
   2   10    7     6     2    0.0000E+00  0.0000E+00   0.0000E+00  0.000E+00  0.000E+00  0.000E+00  1.03818E+03  0.000E+00  1.200E+01  6.000E-01  1.000E+00
   2   11    7     6     3    0.0000E+00  0.0000E+00   0.0000E+00  0.000E+00  0.000E+00  0.000E+00  1.03364E+03  0.000E+00  1.200E+01  6.000E-01  1.000E+00
   2   12    7     6     4    0.0000E+00  0.0000E+00   0.0000E+00  0.000E+00  0.000E+00  0.000E+00  1.02909E+03  0.000E+00  1.200E+01  6.000E-01  5.293E-01
   2   13    7     6     5    0.0000E+00 -7.5955E-01   7.5955E-01  0.000E+00  0.000E+00  0.000E+00  1.02601E+03  9.901E-02  1.200E+01  2.400E-01 -1.055E+00
   2   14    9     7     1    1.5000E+02  2.8448E+00   1.4716E+02  0.000E+00  0.000E+00  0.000E+00  1.03986E+03  2.284E+00  5.528E+01  5.591E+00  1.696E-01
   2   13    8     7     2    1.4716E+02  3.8735E+00   1.4328E+02  0.000E+00  0.000E+00  0.000E+00  1.03477E+03  2.266E+00  5.520E+01  6.140E+00  2.103E-01
   2   13    7     7     3    1.4328E+02  2.7553E+00   1.4053E+02  0.000E+00  0.000E+00  0.000E+00  1.02967E+03  2.248E+00  5.512E+01  5.573E+00  1.648E-01
   2   13    6     8     1    1.4129E+02  8.8558E-01   1.4040E+02  0.000E+00  0.000E+00  0.000E+00  1.02463E+03  2.751E+00  3.989E+01  4.065E+00  7.262E-02
   2   13    5     8     2    1.4040E+02 -2.3659E+00   1.4277E+02  0.000E+00  0.000E+00  0.000E+00  1.01838E+03  2.756E+00  3.997E+01  4.073E+00 -1.936E-01
   2   13    4     8     3    1.4277E+02 -5.4276E+00   1.4819E+02  0.000E+00  0.000E+00  0.000E+00  1.01216E+03  2.785E+00  4.038E+01  4.115E+00 -4.397E-01
   2   13    3     8     4    1.4819E+02 -6.1515E+00   1.5435E+02  0.000E+00  0.000E+00  0.000E+00  1.00595E+03  2.826E+00  4.097E+01  4.175E+00 -4.911E-01
   2   13    2     8     5    1.5435E+02 -3.5667E+00   1.5791E+02  0.000E+00  0.000E+00  0.000E+00  9.99734E+02  2.859E+00  4.146E+01  4.225E+00 -2.814E-01
   2   13    1     8     6    1.5791E+02 -2.4399E+00   1.6035E+02  0.000E+00  0.000E+00  0.000E+00  9.94755E+02  2.880E+00  4.176E+01  2.553E+00 -3.185E-01
   2    4    5     9     1    0.0000E+00  0.0000E+00   0.0000E+00  0.000E+00  0.000E+00  0.000E+00  1.06000E+03  0.000E+00  2.000E+01  2.000E-03  1.000E+00
   2    4    5    10     1    0.0000E+00  0.0000E+00   0.0000E+00  0.000E+00  0.000E+00  0.000E+00  1.08000E+03  0.000E+00  2.000E+01  2.000E-03  1.000E+00



 ..........LAKE  1 IS DRY..........

     SECTIONS OF THE LAKE BOTTOM HAVE BECOME DRY.  THE DRYSECTIONS
     LIE ABOVE THE FOLLOWING  1 AQUIFER CELLS (LAYER,ROW,COLUMN):
     (  2,  4,  5)  (

 PERIOD     4     TIME STEP    10     TIME STEP LENGTH  1.7520E+05
 PERIOD TIME  1.7520E+06     TOTAL SIMULATION TIME  9.6360E+06


                 HYDROLOGIC BUDGET SUMMARIES FOR SIMULATED LAKES
     (ALL FLUID FLUXES ARE VOLUMES ADDED TO THE LAKE DURING PRESENT TIME STEP)
     ----------------------------------------------------------------------------------------
 LAKE    STAGE         VOLUME     VOL. CHANGE      PRECIP     EVAPORATION    SPECIFIED RUNOFF     COMPUTED RUNOFF    TOTAL RUNOFF
   1  1.074500E+03  0.000000E+00  0.000000E+00  0.000000E+00  0.000000E+00   0.000000E+00          0.000000E+00      0.000000E+00

            GROUND WATER            SURFACE WATER        WATER          UZF INFIL.
 LAKE    INFLOW     OUTFLOW      INFLOW     OUTFLOW       USE        FROM LAKE
   1  0.0000E+00  0.0000E+00  0.0000E+00  0.0000E+00  0.0000E+00       0.0000E+00

      CONNECTED LAKE   TIME-STEP         STAGE-CHANGE          PERCENT
 LAKE    INFLUX      SURFACE AREA   TIME STEP  CUMULATIVE    DISCREPANCY
   1   0.0000E+00     0.0000E+00   0.0000E+00  0.0000E+00       0.000
 --------------------------------------------------------------------------------



            CUMULATIVE HYDROLOGIC BUDGET SUMMARIES FOR SIMULATED LAKES
     (ALL FLUID FLUXES ARE SUMS OF VOLUMES ADDED TO THE LAKE SINCE INITIAL TIME)
     ---------------------------------------------------------------------------
 LAKE       PRECIP       EVAP     SPECIFIED RUNOFF   COMPUTED RUNOFF   TOTAL RUNOFF
   1     0.0000E+00  0.0000E+00       0.0000E+00       0.0000E+00       0.0000E+00

            GROUND WATER            SURFACE WATER       UZF INFIL.
 LAKE    INFLOW     OUTFLOW      INFLOW     OUTFLOW     FROM LAKE
   1  0.0000E+00  0.0000E+00  0.0000E+00  0.0000E+00    0.0000E+00

         WATER    CONNECTED LAKE   CHANGE       PERCENT
 LAKE     USE         INFLUX       IN VOL.    DISCREPANCY
   1   0.0000E+00   0.0000E+00   0.0000E+00      0.000
 --------------------------------------------------------------------------------

 UBDSV3 SAVING "           GW ET" ON UNIT  61 AT TIME STEP 10, STRESS PERIOD 4
 UBDSV3 SAVING "    UZF RECHARGE" ON UNIT  61 AT TIME STEP 10, STRESS PERIOD 4
 UBDSV3 SAVING " SURFACE LEAKAGE" ON UNIT  61 AT TIME STEP 10, STRESS PERIOD 4


UNSATURATED ZONE PACKAGE VOLUMETRIC BUDGET FOR  TIME STEP    10 STRESS PERIOD    4
  ------------------------------------------------------------------------------



     CUMULATIVE VOLUMES      L**3       RATES FOR THIS TIME STEP      L**3/T
     ------------------                 ------------------------

           IN:                                      IN:
           ---                                      ---
        INFILTRATION =   698027460.0000          INFILTRATION =         169.0000

          OUT:                                     OUT:
          ----                                     ----
              UZF ET =   639186580.8339                UZF ET =          72.4702
        UZF RECHARGE =   227036181.5649          UZF RECHARGE =          27.8285

            IN - OUT =  -168195302.3988              IN - OUT =          68.7014

          STORAGE:                                 STORAGE:
          --------                                 --------
      STORAGE CHANGE =  -168078022.8290        STORAGE CHANGE =          68.7135

 PERCENT DISCREPANCY IS DIFFERENCE BETWEEN IN-OUT MINUS CHANGE IN STORAGE
 DIVIDED BY THE AVERAGE OF IN AND OUT TIMES 100

 PERCENT DISCREPANCY =          -0.00     PERCENT DISCREPANCY =          -0.01






1
  VOLUMETRIC BUDGET FOR ENTIRE MODEL AT END OF TIME STEP   10, STRESS PERIOD   4
  ------------------------------------------------------------------------------

     CUMULATIVE VOLUMES      L**3       RATES FOR THIS TIME STEP      L**3/T
     ------------------                 ------------------------

           IN:                                      IN:
           ---                                      ---
             STORAGE     =    10377314.0000               STORAGE     =           0.2115
       CONSTANT HEAD     =           0.0000         CONSTANT HEAD     =           0.0000
               WELLS     =           0.0000                 WELLS     =           0.0000
     HEAD DEP BOUNDS     =     2071074.1250       HEAD DEP BOUNDS     =           0.2145
      STREAM LEAKAGE     =   452511936.0000        STREAM LEAKAGE     =          45.3591
       LAKE  SEEPAGE     =           0.0000         LAKE  SEEPAGE     =           0.0000
        UZF RECHARGE     =   227036176.0000          UZF RECHARGE     =          27.8285
               GW ET     =           0.0000                 GW ET     =           0.0000
     SURFACE LEAKAGE     =           0.0000       SURFACE LEAKAGE     =           0.0000

                TOTAL IN =   691996480.0000                  TOTAL IN =          73.6135

          OUT:                                     OUT:
          ----                                     ----
             STORAGE     =   241102160.0000               STORAGE     =          29.9893
       CONSTANT HEAD     =           0.0000         CONSTANT HEAD     =           0.0000
               WELLS     =   148920000.0000                 WELLS     =          10.0000
     HEAD DEP BOUNDS     =     2783861.5000       HEAD DEP BOUNDS     =           0.2930
      STREAM LEAKAGE     =   178989184.0000        STREAM LEAKAGE     =          20.7111
       LAKE  SEEPAGE     =           0.0000         LAKE  SEEPAGE     =           0.0000
        UZF RECHARGE     =           0.0000          UZF RECHARGE     =           0.0000
               GW ET     =   120193328.0000                 GW ET     =          12.6189
     SURFACE LEAKAGE     =           0.0000       SURFACE LEAKAGE     =           0.0000

               TOTAL OUT =   691988544.0000                 TOTAL OUT =          73.6123

                IN - OUT =        7936.0000                  IN - OUT =       1.1673E-03

     PERCENT DISCREPANCY =           0.00         PERCENT DISCREPANCY =           0.00






         TIME SUMMARY AT END OF TIME STEP   10 IN STRESS PERIOD    4
                    SECONDS     MINUTES      HOURS       DAYS        YEARS
                    -----------------------------------------------------------
   TIME STEP LENGTH 1.75200E+05  2920.0      48.667      2.0278     5.55175E-03
 STRESS PERIOD TIME 1.75200E+06  29200.      486.67      20.278     5.55175E-02
         TOTAL TIME 9.63600E+06 1.60600E+05  2676.7      111.53     0.30535    
1
 
 SOLVING FOR HEAD 
                                                   Max.-Head-Change                         Max.-Flux-Residual
  Residual-Control   Outer-Iter.   Inner-Iter.     Column Row Layer    Maximum-Head-Change  Column Row Layer    Maximum-Flux-Residual          L2-NORM 
          0                 1           2             6    3     2       0.1478541057E+00       6    3    2         0.1984730319E+01      0.4238640677E+01
          0                 2           2             6    3     2       0.9883066532E-02       6    3    2         0.1342093536E+00      0.2252266894E+00
          0                 3           1             6    3     2       0.6492585545E-03       6    3    2         0.8825987342E-02      0.1210437797E-01

    ------------------------------------------------
       NWT REQUIRED            3 OUTER ITERATIONS 
       AND A TOTAL OF          5 INNER ITERATIONS.
    ------------------------------------------------

 NO OUTPUT CONTROL FOR STRESS PERIOD    4   TIME STEP   11
 ..........LAKE  1 IS DRY..........
 
 SOLVING FOR HEAD 
                                                   Max.-Head-Change                         Max.-Flux-Residual
  Residual-Control   Outer-Iter.   Inner-Iter.     Column Row Layer    Maximum-Head-Change  Column Row Layer    Maximum-Flux-Residual          L2-NORM 
          0                 1           2             6    2     2       0.2138881643E+00       6    2    2         0.2789096116E+01      0.5562109459E+01
          0                 2           2             6    2     2       0.1415774211E-01       6    2    2         0.1845668310E+00      0.3399750178E+00
          0                 3           1             6    2     2       0.9377283807E-03       6    2    2         0.1222268442E-01      0.2084921425E-01

    ------------------------------------------------
       NWT REQUIRED            3 OUTER ITERATIONS 
       AND A TOTAL OF          5 INNER ITERATIONS.
    ------------------------------------------------

 NO OUTPUT CONTROL FOR STRESS PERIOD    4   TIME STEP   12
 ..........LAKE  1 IS DRY..........
 
 SOLVING FOR HEAD 
                                                   Max.-Head-Change                         Max.-Flux-Residual
  Residual-Control   Outer-Iter.   Inner-Iter.     Column Row Layer    Maximum-Head-Change  Column Row Layer    Maximum-Flux-Residual          L2-NORM 
          0                 1           2             6    2     2       0.2220862721E+00       6    2    2         0.2897406275E+01      0.5596134048E+01
          0                 2           2             6    2     2       0.1474485923E-01       6    2    2         0.1923213207E+00      0.3448886429E+00
          0                 3           1             6    2     2       0.1022072042E-02       6    2    2         0.1333386294E-01      0.2193090537E-01
          0                 4           1             6    2     2       0.7081087083E-04       6    2    2         0.9240008579E-03      0.1463036326E-02

    ------------------------------------------------
       NWT REQUIRED            4 OUTER ITERATIONS 
       AND A TOTAL OF          6 INNER ITERATIONS.
    ------------------------------------------------

 NO OUTPUT CONTROL FOR STRESS PERIOD    4   TIME STEP   13
 ..........LAKE  1 IS DRY..........
 
 SOLVING FOR HEAD 
                                                   Max.-Head-Change                         Max.-Flux-Residual
  Residual-Control   Outer-Iter.   Inner-Iter.     Column Row Layer    Maximum-Head-Change  Column Row Layer    Maximum-Flux-Residual          L2-NORM 
          0                 1           2             6    2     2       0.2208712155E+00       6    2    2         0.2881945093E+01      0.5655889515E+01
          0                 2           2             6    2     2       0.1526120581E-01       6    2    2         0.1991407755E+00      0.3523990416E+00
          0                 3           1             6    2     2       0.1008580490E-02       6    2    2         0.1315645047E-01      0.2187307364E-01
          0                 4           1             6    2     2       0.6669748509E-04       6    2    2         0.8699199792E-03      0.1406160188E-02

    ------------------------------------------------
       NWT REQUIRED            4 OUTER ITERATIONS 
       AND A TOTAL OF          6 INNER ITERATIONS.
    ------------------------------------------------

 NO OUTPUT CONTROL FOR STRESS PERIOD    4   TIME STEP   14
 ..........LAKE  1 IS DRY..........
 
 SOLVING FOR HEAD 
                                                   Max.-Head-Change                         Max.-Flux-Residual
  Residual-Control   Outer-Iter.   Inner-Iter.     Column Row Layer    Maximum-Head-Change  Column Row Layer    Maximum-Flux-Residual          L2-NORM 
          0                 1           2             6    2     2       0.2196212709E+00       6    2    2         0.2866018971E+01      0.5585549081E+01
          0                 2           2             6    2     2       0.1451443137E-01       6    2    2         0.1892963007E+00      0.3418665783E+00
          0                 3           1             6    2     2       0.9606957735E-03       6    2    2         0.1252266653E-01      0.2109097007E-01

    ------------------------------------------------
       NWT REQUIRED            3 OUTER ITERATIONS 
       AND A TOTAL OF          5 INNER ITERATIONS.
    ------------------------------------------------

 OUTPUT CONTROL FOR STRESS PERIOD    4   TIME STEP   15
    PRINT BUDGET
    PRINT HEAD FOR ALL LAYERS
    SAVE HEAD FOR ALL LAYERS
    SAVE BUDGET

            WELLS   PERIOD    4   STEP  15
 WELL      1   LAYER   2   ROW     6   COL     4   RATE    -1.00000    
 WELL      2   LAYER   2   ROW     6   COL     5   RATE    -1.00000    
 WELL      3   LAYER   2   ROW     7   COL     4   RATE    -1.00000    
 WELL      4   LAYER   2   ROW     7   COL     5   RATE    -1.00000    
 WELL      5   LAYER   2   ROW     8   COL     4   RATE    -1.00000    
 WELL      6   LAYER   2   ROW     8   COL     5   RATE    -1.00000    
 WELL      7   LAYER   2   ROW     9   COL     4   RATE    -1.00000    
 WELL      8   LAYER   2   ROW     9   COL     5   RATE    -1.00000    
 WELL      9   LAYER   2   ROW    10   COL     4   RATE    -1.00000    
 WELL     10   LAYER   2   ROW    10   COL     5   RATE    -1.00000    

  HEAD DEP BOUNDS   PERIOD    4   STEP    15
 BOUNDARY      1   LAYER   2   ROW    13   COL     1   RATE   -0.293745    
 BOUNDARY      2   LAYER   2   ROW    14   COL     9   RATE    0.214321    



 STREAM LISTING     PERIOD      4   STEP       15

 LAYER ROW COL. STREAM  RCH.  FLOW INTO     FLOW TO   FLOW OUT OF   OVRLND.     DIRECT     STREAM       STREAM     STREAM     STREAM   STREAMBED  STREAMBED
                SEG.NO.  NO.  STRM. RCH.    AQUIFER    STRM. RCH.    RUNOFF     PRECIP       ET          HEAD       DEPTH      WIDTH   CONDCTNC.   GRADIENT

   2    1    1     1     1    2.1000E+01  1.8258E+00   1.9174E+01  0.000E+00  0.000E+00  0.000E+00  1.09415E+03  1.102E+00  1.202E+01  5.409E-01  1.125E+00
   2    2    2     1     2    1.9174E+01  3.1977E+00   1.5976E+01  0.000E+00  0.000E+00  0.000E+00  1.08912E+03  1.060E+00  1.125E+01  7.877E-01  1.353E+00
   2    3    3     1     3    1.5976E+01  2.4784E+00   1.3498E+01  0.000E+00  0.000E+00  0.000E+00  1.08343E+03  1.007E+00  1.031E+01  6.185E-01  1.336E+00
   2    3    4     1     4    1.3498E+01  2.0834E+00   1.1415E+01  0.000E+00  0.000E+00  0.000E+00  1.07837E+03  9.591E-01  9.481E+00  5.262E-01  1.320E+00
   2    4    5     2     1    1.4147E+00  1.4147E+00   0.0000E+00  0.000E+00  0.000E+00  0.000E+00  1.07198E+03  4.850E-02  1.200E+01  7.800E-01  1.016E+00
   2    5    6     2     2    0.0000E+00  0.0000E+00   0.0000E+00  0.000E+00  0.000E+00  0.000E+00  1.06651E+03  0.000E+00  1.200E+01  6.000E-01  1.000E+00
   2    6    6     2     3    0.0000E+00  0.0000E+00   0.0000E+00  0.000E+00  0.000E+00  0.000E+00  1.06179E+03  0.000E+00  1.200E+01  6.000E-01  1.000E+00
   2    7    6     2     4    0.0000E+00  0.0000E+00   0.0000E+00  0.000E+00  0.000E+00  0.000E+00  1.05708E+03  0.000E+00  1.200E+01  6.000E-01  1.000E+00
   2    8    6     2     5    0.0000E+00  0.0000E+00   0.0000E+00  0.000E+00  0.000E+00  0.000E+00  1.05236E+03  0.000E+00  1.200E+01  6.000E-01  1.000E+00
   2    3    5     3     1    1.0000E+01  2.8252E+00   7.1748E+00  0.000E+00  0.000E+00  0.000E+00  1.07555E+03  1.909E+00  9.636E+00  7.227E-01  1.955E+00
   2    3    6     3     2    7.1748E+00  2.4905E+00   4.6843E+00  0.000E+00  0.000E+00  0.000E+00  1.07264E+03  1.727E+00  8.909E+00  6.682E-01  1.864E+00
   2    3    7     3     3    4.6843E+00  1.9718E+00   2.7125E+00  0.000E+00  0.000E+00  0.000E+00  1.06987E+03  1.555E+00  8.218E+00  5.547E-01  1.777E+00
   2    4    8     3     4    2.7125E+00  2.2567E+00   4.5579E-01  0.000E+00  0.000E+00  0.000E+00  1.06682E+03  1.364E+00  7.455E+00  6.709E-01  1.682E+00
   2    5    8     3     5    4.5579E-01  4.5579E-01   0.0000E+00  0.000E+00  0.000E+00  0.000E+00  1.06362E+03  0.000E+00  6.655E+00  4.991E-01  1.582E+00
   2    6    8     3     6    0.0000E+00  0.0000E+00   0.0000E+00  0.000E+00  0.000E+00  0.000E+00  1.06055E+03  0.000E+00  6.145E+00  1.844E-01  1.000E+00
   2    5   10     4     1    1.0000E+01  9.0525E-01   9.0947E+00  0.000E+00  0.000E+00  0.000E+00  1.07835E+03  6.210E-01  1.000E+01  2.500E-01  1.207E+00
   2    5    9     4     2    9.0947E+00  1.7835E+00   7.3113E+00  0.000E+00  0.000E+00  0.000E+00  1.07148E+03  5.670E-01  1.000E+01  5.000E-01  1.189E+00
   2    6    8     4     3    7.3113E+00  1.2257E+00   6.0855E+00  0.000E+00  0.000E+00  0.000E+00  1.06368E+03  5.021E-01  1.000E+01  3.500E-01  1.167E+00
   2    6    8     5     1    6.0855E+00  1.4716E+00   4.6139E+00  0.000E+00  0.000E+00  0.000E+00  1.05854E+03  5.396E-01  1.039E+01  4.158E-01  1.180E+00
   2    7    7     5     2    4.6139E+00  1.4897E+00   3.1242E+00  0.000E+00  0.000E+00  0.000E+00  1.05398E+03  4.817E-01  8.557E+00  4.279E-01  1.161E+00
   2    8    7     5     3    3.1242E+00  8.2855E-01   2.2957E+00  0.000E+00  0.000E+00  0.000E+00  1.04968E+03  4.253E-01  6.911E+00  2.419E-01  1.142E+00
   2    8    6     5     4    2.2957E+00  4.9455E-01   1.8011E+00  0.000E+00  0.000E+00  0.000E+00  1.04664E+03  3.856E-01  5.843E+00  1.461E-01  1.129E+00
   2    9    6     6     1    1.8011E+00  1.8011E+00   0.0000E+00  0.000E+00  0.000E+00  0.000E+00  1.04278E+03  5.669E-02  1.200E+01  6.000E-01  1.019E+00
   2   10    7     6     2    0.0000E+00  0.0000E+00   0.0000E+00  0.000E+00  0.000E+00  0.000E+00  1.03818E+03  0.000E+00  1.200E+01  6.000E-01  1.000E+00
   2   11    7     6     3    0.0000E+00  0.0000E+00   0.0000E+00  0.000E+00  0.000E+00  0.000E+00  1.03364E+03  0.000E+00  1.200E+01  6.000E-01  1.000E+00
   2   12    7     6     4    0.0000E+00  0.0000E+00   0.0000E+00  0.000E+00  0.000E+00  0.000E+00  1.02909E+03  0.000E+00  1.200E+01  6.000E-01  5.206E-01
   2   13    7     6     5    0.0000E+00 -7.6291E-01   7.6291E-01  0.000E+00  0.000E+00  0.000E+00  1.02601E+03  9.927E-02  1.200E+01  2.400E-01 -1.060E+00
   2   14    9     7     1    1.5000E+02  2.8206E+00   1.4718E+02  0.000E+00  0.000E+00  0.000E+00  1.03986E+03  2.284E+00  5.528E+01  5.591E+00  1.682E-01
   2   13    8     7     2    1.4718E+02  3.7893E+00   1.4339E+02  0.000E+00  0.000E+00  0.000E+00  1.03477E+03  2.266E+00  5.520E+01  6.141E+00  2.057E-01
   2   13    7     7     3    1.4339E+02  2.6804E+00   1.4071E+02  0.000E+00  0.000E+00  0.000E+00  1.02967E+03  2.249E+00  5.512E+01  5.574E+00  1.603E-01
   2   13    6     8     1    1.4147E+02  8.0922E-01   1.4066E+02  0.000E+00  0.000E+00  0.000E+00  1.02463E+03  2.753E+00  3.991E+01  4.067E+00  6.632E-02
   2   13    5     8     2    1.4066E+02 -2.4369E+00   1.4310E+02  0.000E+00  0.000E+00  0.000E+00  1.01838E+03  2.759E+00  4.000E+01  4.076E+00 -1.993E-01
   2   13    4     8     3    1.4310E+02 -5.4938E+00   1.4859E+02  0.000E+00  0.000E+00  0.000E+00  1.01216E+03  2.787E+00  4.042E+01  4.119E+00 -4.446E-01
   2   13    3     8     4    1.4859E+02 -6.2119E+00   1.5481E+02  0.000E+00  0.000E+00  0.000E+00  1.00595E+03  2.829E+00  4.102E+01  4.180E+00 -4.954E-01
   2   13    2     8     5    1.5481E+02 -3.7168E+00   1.5852E+02  0.000E+00  0.000E+00  0.000E+00  9.99738E+02  2.863E+00  4.152E+01  4.231E+00 -2.929E-01
   2   13    1     8     6    1.5852E+02 -2.4826E+00   1.6101E+02  0.000E+00  0.000E+00  0.000E+00  9.94759E+02  2.884E+00  4.182E+01  2.557E+00 -3.236E-01
   2    4    5     9     1    0.0000E+00  0.0000E+00   0.0000E+00  0.000E+00  0.000E+00  0.000E+00  1.06000E+03  0.000E+00  2.000E+01  2.000E-03  1.000E+00
   2    4    5    10     1    0.0000E+00  0.0000E+00   0.0000E+00  0.000E+00  0.000E+00  0.000E+00  1.08000E+03  0.000E+00  2.000E+01  2.000E-03  1.000E+00



 ..........LAKE  1 IS DRY..........

     SECTIONS OF THE LAKE BOTTOM HAVE BECOME DRY.  THE DRYSECTIONS
     LIE ABOVE THE FOLLOWING  1 AQUIFER CELLS (LAYER,ROW,COLUMN):
     (  2,  4,  5)  (

 PERIOD     4     TIME STEP    15     TIME STEP LENGTH  1.7520E+05
 PERIOD TIME  2.6280E+06     TOTAL SIMULATION TIME  1.0512E+07


                 HYDROLOGIC BUDGET SUMMARIES FOR SIMULATED LAKES
     (ALL FLUID FLUXES ARE VOLUMES ADDED TO THE LAKE DURING PRESENT TIME STEP)
     ----------------------------------------------------------------------------------------
 LAKE    STAGE         VOLUME     VOL. CHANGE      PRECIP     EVAPORATION    SPECIFIED RUNOFF     COMPUTED RUNOFF    TOTAL RUNOFF
   1  1.074500E+03  0.000000E+00  0.000000E+00  0.000000E+00  0.000000E+00   0.000000E+00          0.000000E+00      0.000000E+00

            GROUND WATER            SURFACE WATER        WATER          UZF INFIL.
 LAKE    INFLOW     OUTFLOW      INFLOW     OUTFLOW       USE        FROM LAKE
   1  0.0000E+00  0.0000E+00  0.0000E+00  0.0000E+00  0.0000E+00       0.0000E+00

      CONNECTED LAKE   TIME-STEP         STAGE-CHANGE          PERCENT
 LAKE    INFLUX      SURFACE AREA   TIME STEP  CUMULATIVE    DISCREPANCY
   1   0.0000E+00     0.0000E+00   0.0000E+00  0.0000E+00       0.000
 --------------------------------------------------------------------------------



            CUMULATIVE HYDROLOGIC BUDGET SUMMARIES FOR SIMULATED LAKES
     (ALL FLUID FLUXES ARE SUMS OF VOLUMES ADDED TO THE LAKE SINCE INITIAL TIME)
     ---------------------------------------------------------------------------
 LAKE       PRECIP       EVAP     SPECIFIED RUNOFF   COMPUTED RUNOFF   TOTAL RUNOFF
   1     0.0000E+00  0.0000E+00       0.0000E+00       0.0000E+00       0.0000E+00

            GROUND WATER            SURFACE WATER       UZF INFIL.
 LAKE    INFLOW     OUTFLOW      INFLOW     OUTFLOW     FROM LAKE
   1  0.0000E+00  0.0000E+00  0.0000E+00  0.0000E+00    0.0000E+00

         WATER    CONNECTED LAKE   CHANGE       PERCENT
 LAKE     USE         INFLUX       IN VOL.    DISCREPANCY
   1   0.0000E+00   0.0000E+00   0.0000E+00      0.000
 --------------------------------------------------------------------------------

 UBDSV3 SAVING "           GW ET" ON UNIT  61 AT TIME STEP 15, STRESS PERIOD 4
 UBDSV3 SAVING "    UZF RECHARGE" ON UNIT  61 AT TIME STEP 15, STRESS PERIOD 4
 UBDSV3 SAVING " SURFACE LEAKAGE" ON UNIT  61 AT TIME STEP 15, STRESS PERIOD 4


UNSATURATED ZONE PACKAGE VOLUMETRIC BUDGET FOR  TIME STEP    15 STRESS PERIOD    4
  ------------------------------------------------------------------------------



     CUMULATIVE VOLUMES      L**3       RATES FOR THIS TIME STEP      L**3/T
     ------------------                 ------------------------

           IN:                                      IN:
           ---                                      ---
        INFILTRATION =   846071460.0000          INFILTRATION =         169.0000

          OUT:                                     OUT:
          ----                                     ----
              UZF ET =   704963467.5712                UZF ET =          76.7195
        UZF RECHARGE =   255085086.3523          UZF RECHARGE =          33.2556

            IN - OUT =  -113977093.9235              IN - OUT =          59.0248

          STORAGE:                                 STORAGE:
          --------                                 --------
      STORAGE CHANGE =  -113848385.4595        STORAGE CHANGE =          59.0430

 PERCENT DISCREPANCY IS DIFFERENCE BETWEEN IN-OUT MINUS CHANGE IN STORAGE
 DIVIDED BY THE AVERAGE OF IN AND OUT TIMES 100

 PERCENT DISCREPANCY =          -0.00     PERCENT DISCREPANCY =          -0.01






1
              HEAD IN LAYER 1 AT END OF TIME STEP 15 IN STRESS PERIOD 4
  ---------------------------------------------------------------------------

           1       2       3       4       5       6       7       8       9      10
 ...................................................................................
   1  6999.00 6999.00 6999.00 6999.00 6999.00 6999.00 6999.00 6999.00 6999.00 6999.00
   2  6999.00 6999.00 6999.00 6999.00 6999.00 6999.00 6999.00 6999.00 6999.00 6999.00
   3  6999.00 6999.00 6999.00 6999.00 6999.00 6999.00 6999.00 6999.00 6999.00 6999.00
   4  6999.00 6999.00 6999.00 6999.00 6999.00 6999.00 6999.00 6999.00 6999.00 6999.00
   5  6999.00 6999.00 6999.00 6999.00 6999.00 6999.00 6999.00 6999.00 6999.00 6999.00
   6  6999.00 6999.00 6999.00 6999.00 6999.00 6999.00 6999.00 6999.00 6999.00 6999.00
   7  6999.00 6999.00 6999.00 6999.00 6999.00 6999.00 6999.00 6999.00 6999.00 6999.00
   8  6999.00 6999.00 6999.00 6999.00 6999.00 6999.00 6999.00 6999.00 6999.00 6999.00
   9  6999.00 6999.00 6999.00 6999.00 6999.00 6999.00 6999.00 6999.00 6999.00 6999.00
  10  6999.00 6999.00 6999.00 6999.00 6999.00 6999.00 6999.00 6999.00 6999.00 6999.00
  11  6999.00 6999.00 6999.00 6999.00 6999.00 6999.00 6999.00 6999.00 6999.00 6999.00
  12  6999.00 6999.00 6999.00 6999.00 6999.00 6999.00 6999.00 6999.00 6999.00 6999.00
  13  6999.00 6999.00 6999.00 6999.00 6999.00 6999.00 6999.00 6999.00 6999.00 6999.00
  14  6999.00 6999.00 6999.00 6999.00 6999.00 6999.00 6999.00 6999.00 6999.00 6999.00
  15  6999.00 6999.00 6999.00 6999.00 6999.00 6999.00 6999.00 6999.00 6999.00 6999.00
1
              HEAD IN LAYER 2 AT END OF TIME STEP 15 IN STRESS PERIOD 4
  ---------------------------------------------------------------------------

           1       2       3       4       5       6       7       8       9      10
 ...................................................................................
   1  1090.77 1085.46 6999.00 6999.00 6999.00 6999.00 6999.00 6999.00 6999.00 6999.00
   2  1085.74 1079.56 1072.73 6999.00 6999.00 1064.44 1064.41 1063.27 6999.00 6999.00
   3  6999.00 1069.24 1065.51 1061.75 1063.93 1065.02 1064.72 1062.12 6999.00 6999.00
   4  1058.17 1060.17 1058.66 1055.52 1054.42 1053.60 1055.04 1059.10 1058.02 6999.00
   5  1054.09 1053.30 1051.64 1049.88 1049.56 1049.66 1049.87 1051.65 1055.12 1057.33
   6  1049.92 1048.07 1046.04 1044.77 1044.85 1045.89 1047.20 1049.42 1052.21 1056.50
   7  1046.95 1043.24 1041.11 1040.15 1040.59 1042.02 1043.99 1046.27 1048.99 6999.00
   8  6999.00 1038.04 1036.52 1035.85 1036.42 1037.97 1039.65 1042.82 1044.41 6999.00
   9  6999.00 1032.38 1031.61 1031.41 1032.20 1033.98 1035.03 1037.16 1039.67 6999.00
  10  6999.00 1026.66 1026.66 1027.21 1028.35 1030.07 1031.15 1033.04 1035.77 1036.48
  11  6999.00 1019.61 1020.46 1023.14 1025.07 1027.17 1028.77 1030.94 1034.20 6999.00
  12  1003.09 1009.50 1013.68 1018.10 1021.64 1025.01 1027.53 1030.71 1034.59 6999.00
  13   995.73 1000.62 1007.44 1013.50 1018.98 1024.43 1029.19 1034.15 1036.70 6999.00
  14  6999.00 1006.68 1010.00 1014.80 1019.79 1024.65 1029.92 1035.13 1039.36 6999.00
  15  6999.00 6999.00 1014.66 1017.48 1021.17 1024.44 6999.00 6999.00 6999.00 6999.00

 HEAD WILL BE SAVED ON UNIT   58 AT END OF TIME STEP   15, STRESS PERIOD    4
1
  VOLUMETRIC BUDGET FOR ENTIRE MODEL AT END OF TIME STEP   15, STRESS PERIOD   4
  ------------------------------------------------------------------------------

     CUMULATIVE VOLUMES      L**3       RATES FOR THIS TIME STEP      L**3/T
     ------------------                 ------------------------

           IN:                                      IN:
           ---                                      ---
             STORAGE     =    11354544.0000               STORAGE     =           1.7616
       CONSTANT HEAD     =           0.0000         CONSTANT HEAD     =           0.0000
               WELLS     =           0.0000                 WELLS     =           0.0000
     HEAD DEP BOUNDS     =     2258881.0000       HEAD DEP BOUNDS     =           0.2143
      STREAM LEAKAGE     =   489991648.0000        STREAM LEAKAGE     =          41.0995
       LAKE  SEEPAGE     =           0.0000         LAKE  SEEPAGE     =           0.0000
        UZF RECHARGE     =   255085088.0000          UZF RECHARGE     =          33.2556
               GW ET     =           0.0000                 GW ET     =           0.0000
     SURFACE LEAKAGE     =           0.0000       SURFACE LEAKAGE     =           0.0000

                TOTAL IN =   758690176.0000                  TOTAL IN =          76.3310

          OUT:                                     OUT:
          ----                                     ----
             STORAGE     =   269416704.0000               STORAGE     =          32.4161
       CONSTANT HEAD     =           0.0000         CONSTANT HEAD     =           0.0000
               WELLS     =   157680000.0000                 WELLS     =          10.0000
     HEAD DEP BOUNDS     =     3040940.7500       HEAD DEP BOUNDS     =           0.2937
      STREAM LEAKAGE     =   197356656.0000        STREAM LEAKAGE     =          21.1049
       LAKE  SEEPAGE     =           0.0000         LAKE  SEEPAGE     =           0.0000
        UZF RECHARGE     =           0.0000          UZF RECHARGE     =           0.0000
               GW ET     =   131186624.0000                 GW ET     =          12.5135
     SURFACE LEAKAGE     =           0.0000       SURFACE LEAKAGE     =           0.0000

               TOTAL OUT =   758680896.0000                 TOTAL OUT =          76.3283

                IN - OUT =        9280.0000                  IN - OUT =       2.7847E-03

     PERCENT DISCREPANCY =           0.00         PERCENT DISCREPANCY =           0.00






         TIME SUMMARY AT END OF TIME STEP   15 IN STRESS PERIOD    4
                    SECONDS     MINUTES      HOURS       DAYS        YEARS
                    -----------------------------------------------------------
   TIME STEP LENGTH 1.75200E+05  2920.0      48.667      2.0278     5.55175E-03
 STRESS PERIOD TIME 2.62800E+06  43800.      730.00      30.417     8.32763E-02
         TOTAL TIME 1.05120E+07 1.75200E+05  2920.0      121.67     0.33311    
1
1
                            STRESS PERIOD NO.    5, LENGTH =   2628000.    
                            -----------------------------------------------

                              NUMBER OF TIME STEPS =    15

                               MULTIPLIER FOR DELT =     1.000

                            INITIAL TIME STEP SIZE =   175200.0    

 WELL NO.  LAYER   ROW   COL   STRESS RATE         
 --------------------------------------------------
      1      2      6      4      -3.000    
      2      2      6      5      -3.000    
      3      2      7      4      -3.000    
      4      2      7      5      -3.000    
      5      2      8      4      -3.000    
      6      2      8      5      -3.000    
      7      2      9      4      -3.000    
      8      2      9      5      -3.000    
      9      2     10      4      -3.000    
     10      2     10      5      -3.000    

     10 WELLS

 REUSING NON-PARAMETER GHB CELLS FROM LAST STRESS PERIOD

      2 GHB CELLS

 REUSING STREAM SEGMENT DATA FROM LAST STRESS PERIOD



            AREAL INFILTRATION RATE
 READING ON UNIT   19 WITH FORMAT: (10F4.0)            

            1           2           3           4           5           6           7           8           9          10
 ........................................................................................................................
   1   5.0000E-09  1.0000E-08   0.000       0.000       0.000       0.000       0.000       0.000       0.000       0.000    
   2   1.0000E-08  5.0000E-09  1.0000E-08   0.000       0.000      4.0000E-08  4.0000E-08  2.5000E-08   0.000       0.000    
   3    0.000      2.5000E-08  5.0000E-09  5.0000E-09  4.0000E-08  4.0000E-08  2.5000E-08  2.5000E-08   0.000       0.000    
   4   4.0000E-08  2.5000E-08  5.0000E-09  5.0000E-09  5.0000E-09  5.0000E-09  5.0000E-09  5.0000E-09  1.0000E-08   0.000    
   5   4.0000E-08  2.5000E-08  5.0000E-09  5.0000E-09  5.0000E-09  5.0000E-09  5.0000E-09  5.0000E-09  5.0000E-09  5.0000E-09
   6   4.0000E-08  2.5000E-08  2.5000E-08  1.0000E-08  1.0000E-08  5.0000E-09  5.0000E-09  5.0000E-09  5.0000E-09  2.5000E-08
   7   4.0000E-08  2.5000E-08  2.5000E-08  1.0000E-08  1.0000E-08  5.0000E-09  5.0000E-09  1.0000E-08  1.0000E-08   0.000    
   8    0.000      2.5000E-08  2.5000E-08  1.0000E-08  1.0000E-08  5.0000E-09  5.0000E-09  1.0000E-08  2.5000E-08   0.000    
   9    0.000      2.5000E-08  2.5000E-08  1.0000E-08  1.0000E-08  5.0000E-09  5.0000E-09  1.0000E-08  2.5000E-08   0.000    
  10    0.000      2.5000E-08  2.5000E-08  1.0000E-08  1.0000E-08  5.0000E-09  5.0000E-09  1.0000E-08  2.5000E-08  4.0000E-08
  11    0.000      5.0000E-09  5.0000E-09  5.0000E-09  5.0000E-09  5.0000E-09  5.0000E-09  1.0000E-08  2.5000E-08   0.000    
  12   5.0000E-09  5.0000E-09  5.0000E-09  5.0000E-09  5.0000E-09  5.0000E-09  5.0000E-09  5.0000E-09  1.0000E-08   0.000    
  13   5.0000E-09  5.0000E-09  1.0000E-08  1.0000E-08  1.0000E-08  1.0000E-08  1.0000E-08  5.0000E-09  5.0000E-09   0.000    
  14    0.000      1.0000E-08  2.5000E-08  2.5000E-08  2.5000E-08  2.5000E-08  2.5000E-08  1.0000E-08  5.0000E-09   0.000    
  15    0.000       0.000      4.0000E-08  4.0000E-08  4.0000E-08  4.0000E-08   0.000       0.000       0.000       0.000    

USING ET RATE FROM PREVIOUS STRESS PERIOD. CURRENT PERIOD IS:       5

 USING ET EXTINCTION DEPTH FROM PREVIOUS STRESS PERIOD. CURRENT PERIOD IS:       5

 USING EXTINCTION WATER CONTENT FROM PREVIOUS STRESS PERIOD. CURRENT PERIOD IS:       5




 If any subsequent steady-state stress periods, min. and max. stages for each lake will be read in Record 9a.




 REUSING LAKE CONFIGURATION DATA FROM LAST STRESS PERIOD


 LAKE       PRECIP     EVAP     RUNOFF   WITHDRAW   BOTTOM     AREA
----------------------------------------------------------------------
   1     0.000E+00 4.000E-08 0.000E+00  0.000E+00 1.074E+03 2.500E+07




         C               INTERFACE CONDUCTANCES BETWEEN LAKE AND AQUIFER CELLS
   L     O          (IF TYPE = 6, CONDUCTANCE (L^2/T) IS BETWEEN AQUIFER CELL AND OVERLYING LAKE CELL.)
   A     L  L  T    (IF TYPE = 1 TO 4, CONDUCTANCES ARE PER UNIT SATURATED THICKNESS (L/T).)
   Y  R  U  A  Y
   E  O  M  K  P                        LAKEBED      C O N D U C T A N C E S
   R  W  N  E  E     DELTA Y   DELTA X  LEAKANCE   LAKEBED   AQUIFER  COMBINED
 _______________________________________________________________________________
   1  4  4  1  2    5.00E+03  5.00E+03  5.00E-02  2.50E+02  6.00E-03  6.00E-03
   1  3  5  1  3    5.00E+03  5.00E+03  5.00E-02  2.50E+02  1.20E-03  1.20E-03
   2  4  5  1  6    5.00E+03  5.00E+03  5.00E-02  1.25E+06  9.42E+00  9.42E+00
   1  5  5  1  4    5.00E+03  5.00E+03  5.00E-02  2.50E+02  6.00E-03  6.00E-03
   1  4  6  1  1    5.00E+03  5.00E+03  5.00E-02  2.50E+02  6.00E-03  6.00E-03
 
      DEAD POOL STORAGE FOR LAKE    1 BELOW SEGMENT   10 IS EQUAL TO     0.1200000000E+09
 
      LAKE     INFLOWING STREAM SEGMENT
         1                  9

 MAXIMUM NUMBER OF STREAMS INFLOWING TO A LAKE IS    1

      LAKE     OUTFLOWING STREAM SEGMENT
         1                 10

 MAXIMUM NUMBER OF STREAMS OUTFLOWING FROM A LAKE IS    1

 
 SOLVING FOR HEAD 
                                                   Max.-Head-Change                         Max.-Flux-Residual
  Residual-Control   Outer-Iter.   Inner-Iter.     Column Row Layer    Maximum-Head-Change  Column Row Layer    Maximum-Flux-Residual          L2-NORM 
          0                 1           2             6    2     2       0.2183598839E+00       6    2    2         0.2849941261E+01      0.7114107208E+01
          0                 2           2             6    2     2       0.1442642085E-01       6    2    2         0.1881706192E+00      0.4556817825E+00
          0                 3           1             6    2     2       0.9545849847E-03       6    2    2         0.1244451816E-01      0.2809820925E-01

    ------------------------------------------------
       NWT REQUIRED            3 OUTER ITERATIONS 
       AND A TOTAL OF          5 INNER ITERATIONS.
    ------------------------------------------------

 NO OUTPUT CONTROL FOR STRESS PERIOD    5   TIME STEP    1
 ..........LAKE  1 IS DRY..........
 
 SOLVING FOR HEAD 
                                                   Max.-Head-Change                         Max.-Flux-Residual
  Residual-Control   Outer-Iter.   Inner-Iter.     Column Row Layer    Maximum-Head-Change  Column Row Layer    Maximum-Flux-Residual          L2-NORM 
          0                 1           2             6    2     2       0.2170622627E+00       6    2    2         0.2833516559E+01      0.6879969978E+01
          0                 2           2             6    2     2       0.1433413536E-01       6    2    2         0.1870011165E+00      0.4725458655E+00
          0                 3           1             6    2     2       0.9480413472E-03       6    2    2         0.1236148805E-01      0.2915545119E-01

    ------------------------------------------------
       NWT REQUIRED            3 OUTER ITERATIONS 
       AND A TOTAL OF          5 INNER ITERATIONS.
    ------------------------------------------------

 NO OUTPUT CONTROL FOR STRESS PERIOD    5   TIME STEP    2
 ..........LAKE  1 IS DRY..........
 
 SOLVING FOR HEAD 
                                                   Max.-Head-Change                         Max.-Flux-Residual
  Residual-Control   Outer-Iter.   Inner-Iter.     Column Row Layer    Maximum-Head-Change  Column Row Layer    Maximum-Flux-Residual          L2-NORM 
          0                 1           2             6    2     2       0.2148212282E+00       6    2    2         0.2816593766E+01      0.8106649458E+01
          0                 2           2             6    2     2       0.1401888645E-01       6    2    2         0.1838387355E+00      0.5455970935E+00
          0                 3           1             6    2     2       0.9144016990E-03       6    2    2         0.1199460397E-01      0.3020415040E-01

    ------------------------------------------------
       NWT REQUIRED            3 OUTER ITERATIONS 
       AND A TOTAL OF          5 INNER ITERATIONS.
    ------------------------------------------------

 NO OUTPUT CONTROL FOR STRESS PERIOD    5   TIME STEP    3
 ..........LAKE  1 IS DRY..........
 
 SOLVING FOR HEAD 
                                                   Max.-Head-Change                         Max.-Flux-Residual
  Residual-Control   Outer-Iter.   Inner-Iter.     Column Row Layer    Maximum-Head-Change  Column Row Layer    Maximum-Flux-Residual          L2-NORM 
          0                 1           2             6    2     2       0.2115683660E+00       6    2    2         0.2785178312E+01      0.8460552222E+01
          0                 2           2             6    2     2       0.1381031031E-01       7   10    2        -0.2080620490E+00      0.6050043869E+00
          0                 3           1             6    2     2       0.9116162103E-03       7   10    2         0.1243789436E-01      0.3418127943E-01

    ------------------------------------------------
       NWT REQUIRED            3 OUTER ITERATIONS 
       AND A TOTAL OF          5 INNER ITERATIONS.
    ------------------------------------------------

 NO OUTPUT CONTROL FOR STRESS PERIOD    5   TIME STEP    4
 ..........LAKE  1 IS DRY..........
 
 SOLVING FOR HEAD 
                                                   Max.-Head-Change                         Max.-Flux-Residual
  Residual-Control   Outer-Iter.   Inner-Iter.     Column Row Layer    Maximum-Head-Change  Column Row Layer    Maximum-Flux-Residual          L2-NORM 
          0                 1           2             6    2     2       0.2099267528E+00       6    2    2         0.2743206872E+01      0.9214907533E+01
          0                 2           2             6    2     2       0.1383015080E-01       7   10    2        -0.1923139135E+00      0.6515645637E+00
          0                 3           1             6    2     2       0.9127054191E-03       6    2    2         0.1191489502E-01      0.3831155475E-01

    ------------------------------------------------
       NWT REQUIRED            3 OUTER ITERATIONS 
       AND A TOTAL OF          5 INNER ITERATIONS.
    ------------------------------------------------

 OUTPUT CONTROL FOR STRESS PERIOD    5   TIME STEP    5
    PRINT BUDGET
    SAVE BUDGET

            WELLS   PERIOD    5   STEP   5
 WELL      1   LAYER   2   ROW     6   COL     4   RATE    -3.00000    
 WELL      2   LAYER   2   ROW     6   COL     5   RATE    -3.00000    
 WELL      3   LAYER   2   ROW     7   COL     4   RATE    -3.00000    
 WELL      4   LAYER   2   ROW     7   COL     5   RATE    -3.00000    
 WELL      5   LAYER   2   ROW     8   COL     4   RATE    -3.00000    
 WELL      6   LAYER   2   ROW     8   COL     5   RATE    -3.00000    
 WELL      7   LAYER   2   ROW     9   COL     4   RATE    -3.00000    
 WELL      8   LAYER   2   ROW     9   COL     5   RATE    -3.00000    
 WELL      9   LAYER   2   ROW    10   COL     4   RATE    -3.00000    
 WELL     10   LAYER   2   ROW    10   COL     5   RATE    -3.00000    

  HEAD DEP BOUNDS   PERIOD    5   STEP     5
 BOUNDARY      1   LAYER   2   ROW    13   COL     1   RATE   -0.292933    
 BOUNDARY      2   LAYER   2   ROW    14   COL     9   RATE    0.214125    



 STREAM LISTING     PERIOD      5   STEP        5

 LAYER ROW COL. STREAM  RCH.  FLOW INTO     FLOW TO   FLOW OUT OF   OVRLND.     DIRECT     STREAM       STREAM     STREAM     STREAM   STREAMBED  STREAMBED
                SEG.NO.  NO.  STRM. RCH.    AQUIFER    STRM. RCH.    RUNOFF     PRECIP       ET          HEAD       DEPTH      WIDTH   CONDCTNC.   GRADIENT

   2    1    1     1     1    3.9000E+01  2.4453E+00   3.6555E+01  0.000E+00  0.000E+00  0.000E+00  1.09436E+03  1.316E+00  1.528E+01  6.877E-01  1.185E+00
   2    2    2     1     2    3.6555E+01  4.4239E+00   3.2131E+01  0.000E+00  0.000E+00  0.000E+00  1.08935E+03  1.288E+00  1.474E+01  1.032E+00  1.429E+00
   2    3    3     1     3    3.2131E+01  3.5878E+00   2.8543E+01  0.000E+00  0.000E+00  0.000E+00  1.08367E+03  1.253E+00  1.406E+01  8.436E-01  1.418E+00
   2    3    4     1     4    2.8543E+01  3.1406E+00   2.5402E+01  0.000E+00  0.000E+00  0.000E+00  1.07862E+03  1.209E+00  1.345E+01  7.462E-01  1.403E+00
   2    4    5     2     1    1.5402E+01  3.0023E+00   1.2400E+01  0.000E+00  0.000E+00  0.000E+00  1.07278E+03  8.491E-01  1.200E+01  7.800E-01  1.283E+00
   2    5    6     2     2    1.2400E+01  2.2493E+00   1.0151E+01  0.000E+00  0.000E+00  0.000E+00  1.06726E+03  7.489E-01  1.200E+01  6.000E-01  1.250E+00
   2    6    6     2     3    1.0151E+01  2.1939E+00   7.9569E+00  0.000E+00  0.000E+00  0.000E+00  1.06245E+03  6.565E-01  1.200E+01  6.000E-01  1.219E+00
   2    7    6     2     4    7.9569E+00  2.1344E+00   5.8225E+00  0.000E+00  0.000E+00  0.000E+00  1.05763E+03  5.573E-01  1.200E+01  6.000E-01  1.186E+00
   2    8    6     2     5    5.8225E+00  2.0688E+00   3.7537E+00  0.000E+00  0.000E+00  0.000E+00  1.05281E+03  4.480E-01  1.200E+01  6.000E-01  1.149E+00
   2    3    5     3     1    1.0000E+01  2.8252E+00   7.1748E+00  0.000E+00  0.000E+00  0.000E+00  1.07555E+03  1.909E+00  9.636E+00  7.227E-01  1.955E+00
   2    3    6     3     2    7.1748E+00  2.4905E+00   4.6843E+00  0.000E+00  0.000E+00  0.000E+00  1.07264E+03  1.727E+00  8.909E+00  6.682E-01  1.864E+00
   2    3    7     3     3    4.6843E+00  1.9718E+00   2.7125E+00  0.000E+00  0.000E+00  0.000E+00  1.06987E+03  1.555E+00  8.218E+00  5.547E-01  1.777E+00
   2    4    8     3     4    2.7125E+00  2.2567E+00   4.5579E-01  0.000E+00  0.000E+00  0.000E+00  1.06682E+03  1.364E+00  7.455E+00  6.709E-01  1.682E+00
   2    5    8     3     5    4.5579E-01  4.5579E-01   0.0000E+00  0.000E+00  0.000E+00  0.000E+00  1.06362E+03  0.000E+00  6.655E+00  4.991E-01  1.582E+00
   2    6    8     3     6    0.0000E+00  0.0000E+00   0.0000E+00  0.000E+00  0.000E+00  0.000E+00  1.06055E+03  0.000E+00  6.145E+00  1.844E-01  1.000E+00
   2    5   10     4     1    1.0000E+01  9.0525E-01   9.0947E+00  0.000E+00  0.000E+00  0.000E+00  1.07835E+03  6.210E-01  1.000E+01  2.500E-01  1.207E+00
   2    5    9     4     2    9.0947E+00  1.7835E+00   7.3113E+00  0.000E+00  0.000E+00  0.000E+00  1.07148E+03  5.670E-01  1.000E+01  5.000E-01  1.189E+00
   2    6    8     4     3    7.3113E+00  1.2257E+00   6.0855E+00  0.000E+00  0.000E+00  0.000E+00  1.06368E+03  5.021E-01  1.000E+01  3.500E-01  1.167E+00
   2    6    8     5     1    6.0855E+00  1.4716E+00   4.6139E+00  0.000E+00  0.000E+00  0.000E+00  1.05854E+03  5.396E-01  1.039E+01  4.158E-01  1.180E+00
   2    7    7     5     2    4.6139E+00  1.4897E+00   3.1242E+00  0.000E+00  0.000E+00  0.000E+00  1.05398E+03  4.817E-01  8.557E+00  4.279E-01  1.161E+00
   2    8    7     5     3    3.1242E+00  8.2855E-01   2.2957E+00  0.000E+00  0.000E+00  0.000E+00  1.04968E+03  4.253E-01  6.911E+00  2.419E-01  1.142E+00
   2    8    6     5     4    2.2957E+00  4.9455E-01   1.8011E+00  0.000E+00  0.000E+00  0.000E+00  1.04664E+03  3.856E-01  5.843E+00  1.461E-01  1.129E+00
   2    9    6     6     1    5.5548E+00  2.0627E+00   3.4922E+00  0.000E+00  0.000E+00  0.000E+00  1.04317E+03  4.378E-01  1.200E+01  6.000E-01  1.146E+00
   2   10    7     6     2    3.4922E+00  1.9840E+00   1.5081E+00  0.000E+00  0.000E+00  0.000E+00  1.03849E+03  3.067E-01  1.200E+01  6.000E-01  1.102E+00
   2   11    7     6     3    1.5081E+00  1.5081E+00   0.0000E+00  0.000E+00  0.000E+00  0.000E+00  1.03369E+03  5.096E-02  1.200E+01  6.000E-01  1.017E+00
   2   12    7     6     4    0.0000E+00  0.0000E+00   0.0000E+00  0.000E+00  0.000E+00  0.000E+00  1.02909E+03  0.000E+00  1.200E+01  6.000E-01  5.093E-01
   2   13    7     6     5    0.0000E+00 -7.6010E-01   7.6010E-01  0.000E+00  0.000E+00  0.000E+00  1.02601E+03  9.905E-02  1.200E+01  2.400E-01 -1.056E+00
   2   14    9     7     1    1.5000E+02  2.7923E+00   1.4721E+02  0.000E+00  0.000E+00  0.000E+00  1.03986E+03  2.284E+00  5.528E+01  5.591E+00  1.665E-01
   2   13    8     7     2    1.4721E+02  3.6758E+00   1.4353E+02  0.000E+00  0.000E+00  0.000E+00  1.03477E+03  2.267E+00  5.520E+01  6.141E+00  1.995E-01
   2   13    7     7     3    1.4353E+02  2.7504E+00   1.4078E+02  0.000E+00  0.000E+00  0.000E+00  1.02967E+03  2.249E+00  5.512E+01  5.574E+00  1.645E-01
   2   13    6     8     1    1.4154E+02  9.0471E-01   1.4064E+02  0.000E+00  0.000E+00  0.000E+00  1.02463E+03  2.753E+00  3.992E+01  4.068E+00  7.414E-02
   2   13    5     8     2    1.4064E+02 -2.1934E+00   1.4283E+02  0.000E+00  0.000E+00  0.000E+00  1.01838E+03  2.758E+00  3.999E+01  4.075E+00 -1.794E-01
   2   13    4     8     3    1.4283E+02 -5.2063E+00   1.4804E+02  0.000E+00  0.000E+00  0.000E+00  1.01216E+03  2.784E+00  4.037E+01  4.114E+00 -4.218E-01
   2   13    3     8     4    1.4804E+02 -5.9286E+00   1.5397E+02  0.000E+00  0.000E+00  0.000E+00  1.00595E+03  2.824E+00  4.095E+01  4.173E+00 -4.736E-01
   2   13    2     8     5    1.5397E+02 -3.7717E+00   1.5774E+02  0.000E+00  0.000E+00  0.000E+00  9.99733E+02  2.858E+00  4.143E+01  4.222E+00 -2.978E-01
   2   13    1     8     6    1.5774E+02 -2.4373E+00   1.6017E+02  0.000E+00  0.000E+00  0.000E+00  9.94754E+02  2.879E+00  4.174E+01  2.552E+00 -3.183E-01
   2    4    5     9     1    0.0000E+00  0.0000E+00   0.0000E+00  0.000E+00  0.000E+00  0.000E+00  1.06000E+03  0.000E+00  2.000E+01  2.000E-03  1.000E+00
   2    4    5    10     1    0.0000E+00  0.0000E+00   0.0000E+00  0.000E+00  0.000E+00  0.000E+00  1.08000E+03  0.000E+00  2.000E+01  2.000E-03  1.000E+00



 ..........LAKE  1 IS DRY..........

     SECTIONS OF THE LAKE BOTTOM HAVE BECOME DRY.  THE DRYSECTIONS
     LIE ABOVE THE FOLLOWING  1 AQUIFER CELLS (LAYER,ROW,COLUMN):
     (  2,  4,  5)  (

 PERIOD     5     TIME STEP     5     TIME STEP LENGTH  1.7520E+05
 PERIOD TIME  8.7600E+05     TOTAL SIMULATION TIME  1.1388E+07


                 HYDROLOGIC BUDGET SUMMARIES FOR SIMULATED LAKES
     (ALL FLUID FLUXES ARE VOLUMES ADDED TO THE LAKE DURING PRESENT TIME STEP)
     ----------------------------------------------------------------------------------------
 LAKE    STAGE         VOLUME     VOL. CHANGE      PRECIP     EVAPORATION    SPECIFIED RUNOFF     COMPUTED RUNOFF    TOTAL RUNOFF
   1  1.074500E+03  0.000000E+00  0.000000E+00  0.000000E+00  0.000000E+00   0.000000E+00          0.000000E+00      0.000000E+00

            GROUND WATER            SURFACE WATER        WATER          UZF INFIL.
 LAKE    INFLOW     OUTFLOW      INFLOW     OUTFLOW       USE        FROM LAKE
   1  0.0000E+00  0.0000E+00  0.0000E+00  0.0000E+00  0.0000E+00       0.0000E+00

      CONNECTED LAKE   TIME-STEP         STAGE-CHANGE          PERCENT
 LAKE    INFLUX      SURFACE AREA   TIME STEP  CUMULATIVE    DISCREPANCY
   1   0.0000E+00     0.0000E+00   0.0000E+00  0.0000E+00       0.000
 --------------------------------------------------------------------------------



            CUMULATIVE HYDROLOGIC BUDGET SUMMARIES FOR SIMULATED LAKES
     (ALL FLUID FLUXES ARE SUMS OF VOLUMES ADDED TO THE LAKE SINCE INITIAL TIME)
     ---------------------------------------------------------------------------
 LAKE       PRECIP       EVAP     SPECIFIED RUNOFF   COMPUTED RUNOFF   TOTAL RUNOFF
   1     0.0000E+00  0.0000E+00       0.0000E+00       0.0000E+00       0.0000E+00

            GROUND WATER            SURFACE WATER       UZF INFIL.
 LAKE    INFLOW     OUTFLOW      INFLOW     OUTFLOW     FROM LAKE
   1  0.0000E+00  0.0000E+00  0.0000E+00  0.0000E+00    0.0000E+00

         WATER    CONNECTED LAKE   CHANGE       PERCENT
 LAKE     USE         INFLUX       IN VOL.    DISCREPANCY
   1   0.0000E+00   0.0000E+00   0.0000E+00      0.000
 --------------------------------------------------------------------------------

 UBDSV3 SAVING "           GW ET" ON UNIT  61 AT TIME STEP 5, STRESS PERIOD 5
 UBDSV3 SAVING "    UZF RECHARGE" ON UNIT  61 AT TIME STEP 5, STRESS PERIOD 5
 UBDSV3 SAVING " SURFACE LEAKAGE" ON UNIT  61 AT TIME STEP 5, STRESS PERIOD 5


UNSATURATED ZONE PACKAGE VOLUMETRIC BUDGET FOR  TIME STEP     5 STRESS PERIOD    5
  ------------------------------------------------------------------------------



     CUMULATIVE VOLUMES      L**3       RATES FOR THIS TIME STEP      L**3/T
     ------------------                 ------------------------

           IN:                                      IN:
           ---                                      ---
        INFILTRATION =   883082460.0000          INFILTRATION =          42.2500

          OUT:                                     OUT:
          ----                                     ----
              UZF ET =   774062257.7203                UZF ET =          80.2563
        UZF RECHARGE =   281659410.7961          UZF RECHARGE =          34.5098

            IN - OUT =  -172639208.5164              IN - OUT =         -72.5161

          STORAGE:                                 STORAGE:
          --------                                 --------
      STORAGE CHANGE =  -172508860.3328        STORAGE CHANGE =         -72.5312

 PERCENT DISCREPANCY IS DIFFERENCE BETWEEN IN-OUT MINUS CHANGE IN STORAGE
 DIVIDED BY THE AVERAGE OF IN AND OUT TIMES 100

 PERCENT DISCREPANCY =          -0.00     PERCENT DISCREPANCY =           0.01






1
  VOLUMETRIC BUDGET FOR ENTIRE MODEL AT END OF TIME STEP    5, STRESS PERIOD   5
  ------------------------------------------------------------------------------

     CUMULATIVE VOLUMES      L**3       RATES FOR THIS TIME STEP      L**3/T
     ------------------                 ------------------------

           IN:                                      IN:
           ---                                      ---
             STORAGE     =    24978536.0000               STORAGE     =          14.4703
       CONSTANT HEAD     =           0.0000         CONSTANT HEAD     =           0.0000
               WELLS     =           0.0000                 WELLS     =           0.0000
     HEAD DEP BOUNDS     =     2446524.5000       HEAD DEP BOUNDS     =           0.2141
      STREAM LEAKAGE     =   534717184.0000        STREAM LEAKAGE     =          59.1231
       LAKE  SEEPAGE     =           0.0000         LAKE  SEEPAGE     =           0.0000
        UZF RECHARGE     =   281659392.0000          UZF RECHARGE     =          34.5098
               GW ET     =           0.0000                 GW ET     =           0.0000
     SURFACE LEAKAGE     =           0.0000       SURFACE LEAKAGE     =           0.0000

                TOTAL IN =   843801664.0000                  TOTAL IN =         108.3174

          OUT:                                     OUT:
          ----                                     ----
             STORAGE     =   299032480.0000               STORAGE     =          45.3184
       CONSTANT HEAD     =           0.0000         CONSTANT HEAD     =           0.0000
               WELLS     =   183960000.0000                 WELLS     =          30.0000
     HEAD DEP BOUNDS     =     3298031.5000       HEAD DEP BOUNDS     =           0.2929
      STREAM LEAKAGE     =   215403632.0000        STREAM LEAKAGE     =          20.2974
       LAKE  SEEPAGE     =           0.0000         LAKE  SEEPAGE     =           0.0000
        UZF RECHARGE     =           0.0000          UZF RECHARGE     =           0.0000
               GW ET     =   142094720.0000                 GW ET     =          12.4032
     SURFACE LEAKAGE     =           0.0000       SURFACE LEAKAGE     =           0.0000

               TOTAL OUT =   843788864.0000                 TOTAL OUT =         108.3119

                IN - OUT =       12800.0000                  IN - OUT =       5.4550E-03

     PERCENT DISCREPANCY =           0.00         PERCENT DISCREPANCY =           0.01






         TIME SUMMARY AT END OF TIME STEP    5 IN STRESS PERIOD    5
                    SECONDS     MINUTES      HOURS       DAYS        YEARS
                    -----------------------------------------------------------
   TIME STEP LENGTH 1.75200E+05  2920.0      48.667      2.0278     5.55175E-03
 STRESS PERIOD TIME 8.76000E+05  14600.      243.33      10.139     2.77588E-02
         TOTAL TIME 1.13880E+07 1.89800E+05  3163.3      131.81     0.36086    
1
 
 SOLVING FOR HEAD 
                                                   Max.-Head-Change                         Max.-Flux-Residual
  Residual-Control   Outer-Iter.   Inner-Iter.     Column Row Layer    Maximum-Head-Change  Column Row Layer    Maximum-Flux-Residual          L2-NORM 
          0                 1           2             6    2     2       0.2083562138E+00       6    2    2         0.2723572319E+01      0.9623397172E+01
          0                 2           2             6    2     2       0.1372061706E-01       6    2    2         0.1791038007E+00      0.6666305000E+00
          0                 3           1             6    2     2       0.9055197696E-03       6    2    2         0.1182090788E-01      0.4016686285E-01

    ------------------------------------------------
       NWT REQUIRED            3 OUTER ITERATIONS 
       AND A TOTAL OF          5 INNER ITERATIONS.
    ------------------------------------------------

 NO OUTPUT CONTROL FOR STRESS PERIOD    5   TIME STEP    6
 ..........LAKE  1 IS DRY..........
 
 SOLVING FOR HEAD 
                                                   Max.-Head-Change                         Max.-Flux-Residual
  Residual-Control   Outer-Iter.   Inner-Iter.     Column Row Layer    Maximum-Head-Change  Column Row Layer    Maximum-Flux-Residual          L2-NORM 
          0                 1           2             1    7     2       0.2068686423E+00       6    2    2         0.2703126867E+01      0.9166409961E+01
          0                 2           2             5   15     2       0.1413703371E-01       5   15    2         0.1846198786E+00      0.6085209176E+00
          0                 3           1             5   15     2       0.9320410633E-03       5   15    2         0.1217281374E-01      0.3774341005E-01

    ------------------------------------------------
       NWT REQUIRED            3 OUTER ITERATIONS 
       AND A TOTAL OF          5 INNER ITERATIONS.
    ------------------------------------------------

 NO OUTPUT CONTROL FOR STRESS PERIOD    5   TIME STEP    7
 ..........LAKE  1 IS DRY..........
 
 SOLVING FOR HEAD 
                                                   Max.-Head-Change                         Max.-Flux-Residual
  Residual-Control   Outer-Iter.   Inner-Iter.     Column Row Layer    Maximum-Head-Change  Column Row Layer    Maximum-Flux-Residual          L2-NORM 
          0                 1           2             4   15     2       0.2064744226E+00       4   15    2         0.2691680927E+01      0.9568121595E+01
          0                 2           2             4   15     2       0.1365770005E-01       4   15    2         0.1782123834E+00      0.6185498849E+00
          0                 3           1             1    6     2       0.9263872408E-03       1    6    2         0.1210138562E-01      0.3876238704E-01

    ------------------------------------------------
       NWT REQUIRED            3 OUTER ITERATIONS 
       AND A TOTAL OF          5 INNER ITERATIONS.
    ------------------------------------------------

 NO OUTPUT CONTROL FOR STRESS PERIOD    5   TIME STEP    8
 ..........LAKE  1 IS DRY..........
 
 SOLVING FOR HEAD 
                                                   Max.-Head-Change                         Max.-Flux-Residual
  Residual-Control   Outer-Iter.   Inner-Iter.     Column Row Layer    Maximum-Head-Change  Column Row Layer    Maximum-Flux-Residual          L2-NORM 
          0                 1           2            10   10     2       0.2072372447E+00      10   10    2         0.2700149448E+01      0.9731857396E+01
          0                 2           2            10   10     2       0.1435236591E-01      10   10    2         0.1870392267E+00      0.6279357071E+00
          0                 3           1            10   10     2       0.9972250046E-03      10   10    2         0.1299522836E-01      0.3959841321E-01

    ------------------------------------------------
       NWT REQUIRED            3 OUTER ITERATIONS 
       AND A TOTAL OF          5 INNER ITERATIONS.
    ------------------------------------------------

 NO OUTPUT CONTROL FOR STRESS PERIOD    5   TIME STEP    9
 ..........LAKE  1 IS DRY..........
 
 SOLVING FOR HEAD 
                                                   Max.-Head-Change                         Max.-Flux-Residual
  Residual-Control   Outer-Iter.   Inner-Iter.     Column Row Layer    Maximum-Head-Change  Column Row Layer    Maximum-Flux-Residual          L2-NORM 
          0                 1           2             2    2     2       0.7977283103E+00       2    2    2         0.2151485485E+02      0.5482669490E+02
          0                 2           2             2    2     2      -0.7620289875E-01       4   13    2        -0.2381195113E+01      0.4587590135E+01
          0                 3           2             2    2     2       0.4349247268E-02       2    2    2         0.1265278052E+00      0.2122498616E+00
          0                 4           1             2    2     2      -0.8732555410E-04       2    2    2        -0.2636627714E-02      0.5183361686E-02

    ------------------------------------------------
       NWT REQUIRED            4 OUTER ITERATIONS 
       AND A TOTAL OF          7 INNER ITERATIONS.
    ------------------------------------------------

 OUTPUT CONTROL FOR STRESS PERIOD    5   TIME STEP   10
    PRINT BUDGET
    SAVE BUDGET

            WELLS   PERIOD    5   STEP  10
 WELL      1   LAYER   2   ROW     6   COL     4   RATE    -3.00000    
 WELL      2   LAYER   2   ROW     6   COL     5   RATE    -3.00000    
 WELL      3   LAYER   2   ROW     7   COL     4   RATE    -3.00000    
 WELL      4   LAYER   2   ROW     7   COL     5   RATE    -3.00000    
 WELL      5   LAYER   2   ROW     8   COL     4   RATE    -3.00000    
 WELL      6   LAYER   2   ROW     8   COL     5   RATE    -3.00000    
 WELL      7   LAYER   2   ROW     9   COL     4   RATE    -3.00000    
 WELL      8   LAYER   2   ROW     9   COL     5   RATE    -3.00000    
 WELL      9   LAYER   2   ROW    10   COL     4   RATE    -3.00000    
 WELL     10   LAYER   2   ROW    10   COL     5   RATE    -3.00000    

  HEAD DEP BOUNDS   PERIOD    5   STEP    10
 BOUNDARY      1   LAYER   2   ROW    13   COL     1   RATE   -0.302177    
 BOUNDARY      2   LAYER   2   ROW    14   COL     9   RATE    0.213532    



 STREAM LISTING     PERIOD      5   STEP       10

 LAYER ROW COL. STREAM  RCH.  FLOW INTO     FLOW TO   FLOW OUT OF   OVRLND.     DIRECT     STREAM       STREAM     STREAM     STREAM   STREAMBED  STREAMBED
                SEG.NO.  NO.  STRM. RCH.    AQUIFER    STRM. RCH.    RUNOFF     PRECIP       ET          HEAD       DEPTH      WIDTH   CONDCTNC.   GRADIENT

   2    1    1     1     1    9.3895E+02  1.3629E+01   9.2533E+02  0.000E+00  0.000E+00  0.000E+00  1.09718E+03  4.135E+00  5.093E+01  2.292E+00  1.982E+00
   2    2    2     1     2    9.2533E+02  2.5125E+01   9.0020E+02  0.000E+00  0.000E+00  0.000E+00  1.09216E+03  4.103E+00  5.053E+01  3.537E+00  2.368E+00
   2    3    3     1     3    9.0020E+02  2.1211E+01   8.7899E+02  0.000E+00  0.000E+00  0.000E+00  1.08648E+03  4.064E+00  5.005E+01  3.003E+00  2.355E+00
   2    3    4     1     4    8.7899E+02  1.9355E+01   8.5964E+02  0.000E+00  0.000E+00  0.000E+00  1.08144E+03  4.029E+00  4.961E+01  2.754E+00  2.343E+00
   2    4    5     2     1    8.4964E+02  1.0124E+01   8.3951E+02  0.000E+00  0.000E+00  0.000E+00  1.08191E+03  9.980E+00  1.200E+01  7.800E-01  4.327E+00
   2    5    6     2     2    8.3951E+02  7.7498E+00   8.3176E+02  0.000E+00  0.000E+00  0.000E+00  1.07643E+03  9.916E+00  1.200E+01  6.000E-01  4.305E+00
   2    6    6     2     3    8.3176E+02  7.7168E+00   8.2404E+02  0.000E+00  0.000E+00  0.000E+00  1.07165E+03  9.861E+00  1.200E+01  6.000E-01  4.287E+00
   2    7    6     2     4    8.2404E+02  7.6837E+00   8.1636E+02  0.000E+00  0.000E+00  0.000E+00  1.06688E+03  9.806E+00  1.200E+01  6.000E-01  4.269E+00
   2    8    6     2     5    8.1636E+02  7.6506E+00   8.0871E+02  0.000E+00  0.000E+00  0.000E+00  1.06211E+03  9.751E+00  1.200E+01  6.000E-01  4.250E+00
   2    3    5     3     1    1.0000E+01  2.8252E+00   7.1748E+00  0.000E+00  0.000E+00  0.000E+00  1.07555E+03  1.909E+00  9.636E+00  7.227E-01  1.955E+00
   2    3    6     3     2    7.1748E+00  2.4905E+00   4.6843E+00  0.000E+00  0.000E+00  0.000E+00  1.07264E+03  1.727E+00  8.909E+00  6.682E-01  1.864E+00
   2    3    7     3     3    4.6843E+00  1.9718E+00   2.7125E+00  0.000E+00  0.000E+00  0.000E+00  1.06987E+03  1.555E+00  8.218E+00  5.547E-01  1.777E+00
   2    4    8     3     4    2.7125E+00  2.2567E+00   4.5579E-01  0.000E+00  0.000E+00  0.000E+00  1.06682E+03  1.364E+00  7.455E+00  6.709E-01  1.682E+00
   2    5    8     3     5    4.5579E-01  4.5579E-01   0.0000E+00  0.000E+00  0.000E+00  0.000E+00  1.06362E+03  0.000E+00  6.655E+00  4.991E-01  1.582E+00
   2    6    8     3     6    0.0000E+00  0.0000E+00   0.0000E+00  0.000E+00  0.000E+00  0.000E+00  1.06055E+03  0.000E+00  6.145E+00  1.844E-01  1.000E+00
   2    5   10     4     1    1.0000E+01  9.0525E-01   9.0947E+00  0.000E+00  0.000E+00  0.000E+00  1.07835E+03  6.210E-01  1.000E+01  2.500E-01  1.207E+00
   2    5    9     4     2    9.0947E+00  1.7835E+00   7.3113E+00  0.000E+00  0.000E+00  0.000E+00  1.07148E+03  5.670E-01  1.000E+01  5.000E-01  1.189E+00
   2    6    8     4     3    7.3113E+00  1.2257E+00   6.0855E+00  0.000E+00  0.000E+00  0.000E+00  1.06368E+03  5.021E-01  1.000E+01  3.500E-01  1.167E+00
   2    6    8     5     1    6.0855E+00  1.4716E+00   4.6139E+00  0.000E+00  0.000E+00  0.000E+00  1.05854E+03  5.396E-01  1.039E+01  4.158E-01  1.180E+00
   2    7    7     5     2    4.6139E+00  1.4897E+00   3.1242E+00  0.000E+00  0.000E+00  0.000E+00  1.05398E+03  4.817E-01  8.557E+00  4.279E-01  1.161E+00
   2    8    7     5     3    3.1242E+00  8.2855E-01   2.2957E+00  0.000E+00  0.000E+00  0.000E+00  1.04968E+03  4.253E-01  6.911E+00  2.419E-01  1.142E+00
   2    8    6     5     4    2.2957E+00  4.9455E-01   1.8011E+00  0.000E+00  0.000E+00  0.000E+00  1.04664E+03  3.856E-01  5.843E+00  1.461E-01  1.129E+00
   2    9    6     6     1    8.1051E+02  7.6903E+00   8.0282E+02  0.000E+00  0.000E+00  0.000E+00  1.05254E+03  9.817E+00  1.200E+01  6.000E-01  4.272E+00
   2   10    7     6     2    8.0282E+02  7.6566E+00   7.9516E+02  0.000E+00  0.000E+00  0.000E+00  1.04794E+03  9.761E+00  1.200E+01  6.000E-01  4.254E+00
   2   11    7     6     3    7.9516E+02  7.6230E+00   7.8754E+02  0.000E+00  0.000E+00  0.000E+00  1.04334E+03  9.705E+00  1.200E+01  6.000E-01  4.235E+00
   2   12    7     6     4    7.8754E+02  6.5339E+00   7.8101E+02  0.000E+00  0.000E+00  0.000E+00  1.03874E+03  9.653E+00  1.200E+01  6.000E-01  3.630E+00
   2   13    7     6     5    7.8101E+02  1.5143E+00   7.7949E+02  0.000E+00  0.000E+00  0.000E+00  1.03553E+03  9.623E+00  1.200E+01  2.400E-01  2.103E+00
   2   14    9     7     1    1.5000E+02  2.7063E+00   1.4729E+02  0.000E+00  0.000E+00  0.000E+00  1.03986E+03  2.284E+00  5.528E+01  5.591E+00  1.613E-01
   2   13    8     7     2    1.4729E+02  3.6828E+00   1.4361E+02  0.000E+00  0.000E+00  0.000E+00  1.03477E+03  2.267E+00  5.520E+01  6.141E+00  1.999E-01
   2   13    7     7     3    1.4361E+02  2.4925E+00   1.4112E+02  0.000E+00  0.000E+00  0.000E+00  1.02967E+03  2.250E+00  5.513E+01  5.575E+00  1.490E-01
   2   13    6     8     1    9.2061E+02  1.6073E+01   9.0485E+02  3.073E-01  0.000E+00  0.000E+00  1.02732E+03  5.445E+00  6.410E+01  6.586E+00  8.135E-01
   2   13    5     8     2    9.0485E+02  1.1026E+01   8.9413E+02  3.073E-01  0.000E+00  0.000E+00  1.02104E+03  5.415E+00  6.397E+01  6.571E+00  5.593E-01
   2   13    4     8     3    8.9413E+02  6.5650E+00   8.8787E+02  3.073E-01  0.000E+00  0.000E+00  1.01477E+03  5.395E+00  6.389E+01  6.562E+00  3.335E-01
   2   13    3     8     4    8.8787E+02  5.2331E+00   8.8294E+02  3.073E-01  0.000E+00  0.000E+00  1.00851E+03  5.382E+00  6.383E+01  6.556E+00  2.661E-01
   2   13    2     8     5    8.8294E+02  7.9389E+00   8.7531E+02  3.073E-01  0.000E+00  0.000E+00  1.00224E+03  5.367E+00  6.377E+01  6.549E+00  4.041E-01
   2   13    1     8     6    8.7531E+02  5.0074E+00   8.7049E+02  1.844E-01  0.000E+00  0.000E+00  9.97228E+02  5.353E+00  6.371E+01  3.925E+00  4.252E-01
   2    4    5     9     1    0.0000E+00  0.0000E+00   0.0000E+00  0.000E+00  0.000E+00  0.000E+00  1.06000E+03  0.000E+00  2.000E+01  2.000E-03  1.000E+00
   2    4    5    10     1    0.0000E+00  0.0000E+00   0.0000E+00  0.000E+00  0.000E+00  0.000E+00  1.08000E+03  0.000E+00  2.000E+01  2.000E-03  1.000E+00



 ..........LAKE  1 IS DRY..........

     SECTIONS OF THE LAKE BOTTOM HAVE BECOME DRY.  THE DRYSECTIONS
     LIE ABOVE THE FOLLOWING  1 AQUIFER CELLS (LAYER,ROW,COLUMN):
     (  2,  4,  5)  (

 PERIOD     5     TIME STEP    10     TIME STEP LENGTH  1.7520E+05
 PERIOD TIME  1.7520E+06     TOTAL SIMULATION TIME  1.2264E+07


                 HYDROLOGIC BUDGET SUMMARIES FOR SIMULATED LAKES
     (ALL FLUID FLUXES ARE VOLUMES ADDED TO THE LAKE DURING PRESENT TIME STEP)
     ----------------------------------------------------------------------------------------
 LAKE    STAGE         VOLUME     VOL. CHANGE      PRECIP     EVAPORATION    SPECIFIED RUNOFF     COMPUTED RUNOFF    TOTAL RUNOFF
   1  1.074500E+03  0.000000E+00  0.000000E+00  0.000000E+00  0.000000E+00   0.000000E+00          0.000000E+00      0.000000E+00

            GROUND WATER            SURFACE WATER        WATER          UZF INFIL.
 LAKE    INFLOW     OUTFLOW      INFLOW     OUTFLOW       USE        FROM LAKE
   1  0.0000E+00  0.0000E+00  0.0000E+00  0.0000E+00  0.0000E+00       0.0000E+00

      CONNECTED LAKE   TIME-STEP         STAGE-CHANGE          PERCENT
 LAKE    INFLUX      SURFACE AREA   TIME STEP  CUMULATIVE    DISCREPANCY
   1   0.0000E+00     0.0000E+00   0.0000E+00  0.0000E+00       0.000
 --------------------------------------------------------------------------------



            CUMULATIVE HYDROLOGIC BUDGET SUMMARIES FOR SIMULATED LAKES
     (ALL FLUID FLUXES ARE SUMS OF VOLUMES ADDED TO THE LAKE SINCE INITIAL TIME)
     ---------------------------------------------------------------------------
 LAKE       PRECIP       EVAP     SPECIFIED RUNOFF   COMPUTED RUNOFF   TOTAL RUNOFF
   1     0.0000E+00  0.0000E+00       0.0000E+00       0.0000E+00       0.0000E+00

            GROUND WATER            SURFACE WATER       UZF INFIL.
 LAKE    INFLOW     OUTFLOW      INFLOW     OUTFLOW     FROM LAKE
   1  0.0000E+00  0.0000E+00  0.0000E+00  0.0000E+00    0.0000E+00

         WATER    CONNECTED LAKE   CHANGE       PERCENT
 LAKE     USE         INFLUX       IN VOL.    DISCREPANCY
   1   0.0000E+00   0.0000E+00   0.0000E+00      0.000
 --------------------------------------------------------------------------------

 UBDSV3 SAVING "           GW ET" ON UNIT  61 AT TIME STEP 10, STRESS PERIOD 5
 UBDSV3 SAVING "    UZF RECHARGE" ON UNIT  61 AT TIME STEP 10, STRESS PERIOD 5
 UBDSV3 SAVING " SURFACE LEAKAGE" ON UNIT  61 AT TIME STEP 10, STRESS PERIOD 5


UNSATURATED ZONE PACKAGE VOLUMETRIC BUDGET FOR  TIME STEP    10 STRESS PERIOD    5
  ------------------------------------------------------------------------------



     CUMULATIVE VOLUMES      L**3       RATES FOR THIS TIME STEP      L**3/T
     ------------------                 ------------------------

           IN:                                      IN:
           ---                                      ---
        INFILTRATION =   920072513.6660          INFILTRATION =          42.1304

          OUT:                                     OUT:
          ----                                     ----
              UZF ET =   845972820.0836                UZF ET =          83.1970
        UZF RECHARGE =   323741716.3857          UZF RECHARGE =          60.9004

            IN - OUT =  -249642022.8033              IN - OUT =        -101.9669

          STORAGE:                                 STORAGE:
          --------                                 --------
      STORAGE CHANGE =  -249484577.6819        STORAGE CHANGE =        -101.8056

 PERCENT DISCREPANCY IS DIFFERENCE BETWEEN IN-OUT MINUS CHANGE IN STORAGE
 DIVIDED BY THE AVERAGE OF IN AND OUT TIMES 100

 PERCENT DISCREPANCY =          -0.00     PERCENT DISCREPANCY =          -0.11






1
  VOLUMETRIC BUDGET FOR ENTIRE MODEL AT END OF TIME STEP   10, STRESS PERIOD   5
  ------------------------------------------------------------------------------

     CUMULATIVE VOLUMES      L**3       RATES FOR THIS TIME STEP      L**3/T
     ------------------                 ------------------------

           IN:                                      IN:
           ---                                      ---
             STORAGE     =    36827836.0000               STORAGE     =           9.8062
       CONSTANT HEAD     =           0.0000         CONSTANT HEAD     =           0.0000
               WELLS     =           0.0000                 WELLS     =           0.0000
     HEAD DEP BOUNDS     =     2633841.5000       HEAD DEP BOUNDS     =           0.2135
      STREAM LEAKAGE     =   611712064.0000        STREAM LEAKAGE     =         230.1860
       LAKE  SEEPAGE     =           0.0000         LAKE  SEEPAGE     =           0.0000
        UZF RECHARGE     =   323741664.0000          UZF RECHARGE     =          60.9004
               GW ET     =           0.0000                 GW ET     =           0.0000
     SURFACE LEAKAGE     =           0.0000       SURFACE LEAKAGE     =           0.0000

                TOTAL IN =   974915456.0000                  TOTAL IN =         301.1061

          OUT:                                     OUT:
          ----                                     ----
             STORAGE     =   378427072.0000               STORAGE     =         256.6627
       CONSTANT HEAD     =           0.0000         CONSTANT HEAD     =           0.0000
               WELLS     =   210240000.0000                 WELLS     =          30.0000
     HEAD DEP BOUNDS     =     3555813.0000       HEAD DEP BOUNDS     =           0.3022
      STREAM LEAKAGE     =   229458928.0000        STREAM LEAKAGE     =           0.0000
       LAKE  SEEPAGE     =           0.0000         LAKE  SEEPAGE     =           0.0000
        UZF RECHARGE     =           0.0000          UZF RECHARGE     =           0.0000
               GW ET     =   152934944.0000                 GW ET     =          12.5401
     SURFACE LEAKAGE     =      280440.7500       SURFACE LEAKAGE     =           1.6007

               TOTAL OUT =   974897280.0000                 TOTAL OUT =         301.1056

                IN - OUT =       18176.0000                  IN - OUT =       4.5776E-04

     PERCENT DISCREPANCY =           0.00         PERCENT DISCREPANCY =           0.00






         TIME SUMMARY AT END OF TIME STEP   10 IN STRESS PERIOD    5
                    SECONDS     MINUTES      HOURS       DAYS        YEARS
                    -----------------------------------------------------------
   TIME STEP LENGTH 1.75200E+05  2920.0      48.667      2.0278     5.55175E-03
 STRESS PERIOD TIME 1.75200E+06  29200.      486.67      20.278     5.55175E-02
         TOTAL TIME 1.22640E+07 2.04400E+05  3406.7      141.94     0.38862    
1
 
 SOLVING FOR HEAD 
                                                   Max.-Head-Change                         Max.-Flux-Residual
  Residual-Control   Outer-Iter.   Inner-Iter.     Column Row Layer    Maximum-Head-Change  Column Row Layer    Maximum-Flux-Residual          L2-NORM 
          0                 1           2             2    2     2       0.1543366502E+01       2    2    2         0.4162789831E+02      0.1002201609E+03
          0                 2           2             5    4     2      -0.5258738110E+00       5    4    2        -0.1612236641E+02      0.1810703663E+02
          0                 3           2             4   13     2       0.1908873647E-01       5    4    2         0.4695505266E+00      0.7409271942E+00
          0                 4           1             4   13     2      -0.1727673833E-02       4   13    2        -0.3878843981E-01      0.4388896216E-01
          0                 5           1             4   13     2       0.9214831379E-04       4   13    2         0.2149497614E-02      0.2293066811E-02

    ------------------------------------------------
       NWT REQUIRED            5 OUTER ITERATIONS 
       AND A TOTAL OF          8 INNER ITERATIONS.
    ------------------------------------------------

 NO OUTPUT CONTROL FOR STRESS PERIOD    5   TIME STEP   11
 
 SOLVING FOR HEAD 
                                                   Max.-Head-Change                         Max.-Flux-Residual
  Residual-Control   Outer-Iter.   Inner-Iter.     Column Row Layer    Maximum-Head-Change  Column Row Layer    Maximum-Flux-Residual          L2-NORM 
          0                 1           2             2    2     2       0.1487709779E+01       2    2    2         0.4010451618E+02      0.8212188444E+02
          0                 2           2             1   13     2      -0.1491292725E+00       1   13    2        -0.1052867058E+02      0.1240710120E+02
          0                 3           2             3   13     2      -0.1053501284E-01       1   13    2        -0.3143440771E+00      0.5313783701E+00
          0                 4           2             3   13     2       0.1355518851E-02       3   13    2         0.3304351522E-01      0.6143015382E-01
          0                 5           1             5   13     2      -0.1055280583E-03       5   13    2        -0.2235852968E-02      0.4179933970E-02

    ------------------------------------------------
       NWT REQUIRED            5 OUTER ITERATIONS 
       AND A TOTAL OF          9 INNER ITERATIONS.
    ------------------------------------------------

 NO OUTPUT CONTROL FOR STRESS PERIOD    5   TIME STEP   12
 
 SOLVING FOR HEAD 
                                                   Max.-Head-Change                         Max.-Flux-Residual
  Residual-Control   Outer-Iter.   Inner-Iter.     Column Row Layer    Maximum-Head-Change  Column Row Layer    Maximum-Flux-Residual          L2-NORM 
          0                 1           2             2    2     2       0.1434898734E+01       2    2    2         0.3865889944E+02      0.7284112296E+02
          0                 2           2             5   13     2       0.1394266571E+00       2    2    2        -0.3847552676E+01      0.7973230350E+01
          0                 3           2             5   13     2      -0.1231033485E-01       5   13    2        -0.2501731192E+00      0.5434344267E+00
          0                 4           2             5   13     2       0.1664502273E-02       5   13    2         0.3439704190E-01      0.6016599010E-01
          0                 5           1             5   13     2      -0.1115012882E-03       6   13    2        -0.2455899386E-02      0.4441363452E-02

    ------------------------------------------------
       NWT REQUIRED            5 OUTER ITERATIONS 
       AND A TOTAL OF          9 INNER ITERATIONS.
    ------------------------------------------------

 NO OUTPUT CONTROL FOR STRESS PERIOD    5   TIME STEP   13
 
 SOLVING FOR HEAD 
                                                   Max.-Head-Change                         Max.-Flux-Residual
  Residual-Control   Outer-Iter.   Inner-Iter.     Column Row Layer    Maximum-Head-Change  Column Row Layer    Maximum-Flux-Residual          L2-NORM 
          0                 1           2             5    4     2       0.2486041664E+01       5    4    2         0.7315361895E+02      0.8909911046E+02
          0                 2           2             5    4     2       0.6823814726E+00       5    4    2         0.2017616361E+02      0.2112925250E+02
          0                 3           2             5    4     2       0.1979689820E+00       5    4    2         0.5854940898E+01      0.1060054173E+02
          0                 4           2             5    4     2       0.5747152465E-01       5    4    2         0.1699296617E+01      0.1714213881E+01
          0                 5           2             5    4     2       0.1668777185E-01       5    4    2         0.4934293311E+00      0.4934962104E+00
          0                 6           2             5    4     2       0.4845656167E-02       5    4    2         0.1432798825E+00      0.1432865122E+00
          0                 7           2             5    4     2       0.1407048484E-02       5    4    2         0.4160472393E-01      0.4160661385E-01
          0                 8           1             5    4     2       0.4085698615E-03       5    4    2         0.1208092836E-01      0.1208147703E-01

    ------------------------------------------------
       NWT REQUIRED            8 OUTER ITERATIONS 
       AND A TOTAL OF         15 INNER ITERATIONS.
    ------------------------------------------------

 NO OUTPUT CONTROL FOR STRESS PERIOD    5   TIME STEP   14
 
 SOLVING FOR HEAD 
                                                   Max.-Head-Change                         Max.-Flux-Residual
  Residual-Control   Outer-Iter.   Inner-Iter.     Column Row Layer    Maximum-Head-Change  Column Row Layer    Maximum-Flux-Residual          L2-NORM 
          0                 1           2             5    4     2       0.2162709055E+01       5    4    2         0.6328451310E+02      0.7834088071E+02
          0                 2           2             6   13     2       0.6246156849E+00       6   13    2         0.2119079043E+02      0.3897524080E+02
          0                 3           2             5    4     2       0.1747994639E+00       5    4    2         0.5173811584E+01      0.7527864236E+01
          0                 4           2             5    4     2       0.4969159362E-01       5    4    2         0.1471560092E+01      0.1473146725E+01
          0                 5           2             5    4     2       0.1412618534E-01       5    4    2         0.4183100052E+00      0.4183312810E+00
          0                 6           2             5    4     2       0.4015879427E-02       5    4    2         0.1189224845E+00      0.1189280868E+00
          0                 7           2             5    4     2       0.1141662511E-02       5    4    2         0.3380810363E-01      0.3380970665E-01
          0                 8           1             5    4     2       0.3245605094E-03       5    4    2         0.9611236632E-02      0.9611691800E-02

    ------------------------------------------------
       NWT REQUIRED            8 OUTER ITERATIONS 
       AND A TOTAL OF         15 INNER ITERATIONS.
    ------------------------------------------------

 OUTPUT CONTROL FOR STRESS PERIOD    5   TIME STEP   15
    PRINT BUDGET
    SAVE BUDGET

            WELLS   PERIOD    5   STEP  15
 WELL      1   LAYER   2   ROW     6   COL     4   RATE    -3.00000    
 WELL      2   LAYER   2   ROW     6   COL     5   RATE    -3.00000    
 WELL      3   LAYER   2   ROW     7   COL     4   RATE    -3.00000    
 WELL      4   LAYER   2   ROW     7   COL     5   RATE    -3.00000    
 WELL      5   LAYER   2   ROW     8   COL     4   RATE    -3.00000    
 WELL      6   LAYER   2   ROW     8   COL     5   RATE    -3.00000    
 WELL      7   LAYER   2   ROW     9   COL     4   RATE    -3.00000    
 WELL      8   LAYER   2   ROW     9   COL     5   RATE    -3.00000    
 WELL      9   LAYER   2   ROW    10   COL     4   RATE    -3.00000    
 WELL     10   LAYER   2   ROW    10   COL     5   RATE    -3.00000    

  HEAD DEP BOUNDS   PERIOD    5   STEP    15
 BOUNDARY      1   LAYER   2   ROW    13   COL     1   RATE   -0.334592    
 BOUNDARY      2   LAYER   2   ROW    14   COL     9   RATE    0.213461    



 STREAM LISTING     PERIOD      5   STEP       15

 LAYER ROW COL. STREAM  RCH.  FLOW INTO     FLOW TO   FLOW OUT OF   OVRLND.     DIRECT     STREAM       STREAM     STREAM     STREAM   STREAMBED  STREAMBED
                SEG.NO.  NO.  STRM. RCH.    AQUIFER    STRM. RCH.    RUNOFF     PRECIP       ET          HEAD       DEPTH      WIDTH   CONDCTNC.   GRADIENT

   2    1    1     1     1    1.6000E+02  1.9866E+00   1.5801E+02  0.000E+00  0.000E+00  0.000E+00  1.09519E+03  2.140E+00  2.619E+01  1.179E+00  5.618E-01
   2    2    2     1     2    1.5801E+02  8.8020E+00   1.4921E+02  0.000E+00  0.000E+00  0.000E+00  1.09017E+03  2.112E+00  2.585E+01  1.810E+00  1.621E+00
   2    3    3     1     3    1.4921E+02  7.7019E+00   1.4151E+02  0.000E+00  0.000E+00  0.000E+00  1.08449E+03  2.069E+00  2.532E+01  1.519E+00  1.690E+00
   2    3    4     1     4    1.4151E+02  6.9329E+00   1.3458E+02  0.000E+00  0.000E+00  0.000E+00  1.07944E+03  2.030E+00  2.484E+01  1.378E+00  1.677E+00
   2    4    5     2     1    1.2458E+02  0.0000E+00   1.2458E+02  0.000E+00  0.000E+00  0.000E+00  1.07510E+03  3.165E+00  1.200E+01  0.000E+00  2.055E+00
   2    5    6     2     2    1.2458E+02  3.6823E+00   1.2089E+02  0.000E+00  0.000E+00  0.000E+00  1.06965E+03  3.137E+00  1.200E+01  6.000E-01  2.046E+00
   2    6    6     2     3    1.2089E+02  3.6483E+00   1.1725E+02  0.000E+00  0.000E+00  0.000E+00  1.06487E+03  3.081E+00  1.200E+01  6.000E-01  2.027E+00
   2    7    6     2     4    1.1725E+02  3.6143E+00   1.1363E+02  0.000E+00  0.000E+00  0.000E+00  1.06010E+03  3.024E+00  1.200E+01  6.000E-01  2.008E+00
   2    8    6     2     5    1.1363E+02  3.5802E+00   1.1005E+02  0.000E+00  0.000E+00  0.000E+00  1.05533E+03  2.967E+00  1.200E+01  6.000E-01  1.989E+00
   2    3    5     3     1    1.0000E+01  2.8252E+00   7.1748E+00  0.000E+00  0.000E+00  0.000E+00  1.07555E+03  1.909E+00  9.636E+00  7.227E-01  1.955E+00
   2    3    6     3     2    7.1748E+00  2.4905E+00   4.6843E+00  0.000E+00  0.000E+00  0.000E+00  1.07264E+03  1.727E+00  8.909E+00  6.682E-01  1.864E+00
   2    3    7     3     3    4.6843E+00  1.9718E+00   2.7125E+00  0.000E+00  0.000E+00  0.000E+00  1.06987E+03  1.555E+00  8.218E+00  5.547E-01  1.777E+00
   2    4    8     3     4    2.7125E+00  2.2567E+00   4.5579E-01  0.000E+00  0.000E+00  0.000E+00  1.06682E+03  1.364E+00  7.455E+00  6.709E-01  1.682E+00
   2    5    8     3     5    4.5579E-01  4.5579E-01   0.0000E+00  0.000E+00  0.000E+00  0.000E+00  1.06362E+03  0.000E+00  6.655E+00  4.991E-01  1.582E+00
   2    6    8     3     6    0.0000E+00  0.0000E+00   0.0000E+00  0.000E+00  0.000E+00  0.000E+00  1.06055E+03  0.000E+00  6.145E+00  1.844E-01  1.000E+00
   2    5   10     4     1    1.0000E+01  9.0525E-01   9.0947E+00  0.000E+00  0.000E+00  0.000E+00  1.07835E+03  6.210E-01  1.000E+01  2.500E-01  1.207E+00
   2    5    9     4     2    9.0947E+00  1.7835E+00   7.3113E+00  0.000E+00  0.000E+00  0.000E+00  1.07148E+03  5.670E-01  1.000E+01  5.000E-01  1.189E+00
   2    6    8     4     3    7.3113E+00  1.2257E+00   6.0855E+00  0.000E+00  0.000E+00  0.000E+00  1.06368E+03  5.021E-01  1.000E+01  3.500E-01  1.167E+00
   2    6    8     5     1    6.0855E+00  1.4716E+00   4.6139E+00  0.000E+00  0.000E+00  0.000E+00  1.05854E+03  5.396E-01  1.039E+01  4.158E-01  1.180E+00
   2    7    7     5     2    4.6139E+00  1.4897E+00   3.1242E+00  0.000E+00  0.000E+00  0.000E+00  1.05398E+03  4.817E-01  8.557E+00  4.279E-01  1.161E+00
   2    8    7     5     3    3.1242E+00  8.2855E-01   2.2957E+00  0.000E+00  0.000E+00  0.000E+00  1.04968E+03  4.253E-01  6.911E+00  2.419E-01  1.142E+00
   2    8    6     5     4    2.2957E+00  4.9455E-01   1.8011E+00  0.000E+00  0.000E+00  0.000E+00  1.04664E+03  3.856E-01  5.843E+00  1.461E-01  1.129E+00
   2    9    6     6     1    1.1185E+02  3.5828E+00   1.0827E+02  0.000E+00  0.000E+00  0.000E+00  1.04570E+03  2.971E+00  1.200E+01  6.000E-01  1.990E+00
   2   10    7     6     2    1.0827E+02  3.5479E+00   1.0472E+02  0.000E+00  0.000E+00  0.000E+00  1.04109E+03  2.913E+00  1.200E+01  6.000E-01  1.971E+00
   2   11    7     6     3    1.0472E+02  3.5101E+00   1.0121E+02  0.000E+00  0.000E+00  0.000E+00  1.03649E+03  2.855E+00  1.200E+01  6.000E-01  1.950E+00
   2   12    7     6     4    1.0121E+02  1.6856E+00   9.9526E+01  0.000E+00  0.000E+00  0.000E+00  1.03190E+03  2.811E+00  1.200E+01  6.000E-01  9.365E-01
   2   13    7     6     5    9.9526E+01 -2.2880E-01   9.9755E+01  0.000E+00  0.000E+00  0.000E+00  1.02871E+03  2.799E+00  1.200E+01  2.400E-01 -3.178E-01
   2   14    9     7     1    1.5000E+02  2.6960E+00   1.4730E+02  0.000E+00  0.000E+00  0.000E+00  1.03986E+03  2.284E+00  5.528E+01  5.591E+00  1.607E-01
   2   13    8     7     2    1.4730E+02  3.5641E+00   1.4374E+02  0.000E+00  0.000E+00  0.000E+00  1.03477E+03  2.267E+00  5.520E+01  6.141E+00  1.934E-01
   2   13    7     7     3    1.4374E+02  8.5515E-02   1.4365E+02  0.000E+00  0.000E+00  0.000E+00  1.02968E+03  2.258E+00  5.516E+01  5.578E+00  5.110E-03
   2   13    6     8     1    2.4341E+02 -6.4323E+00   2.5170E+02  1.854E+00  0.000E+00  0.000E+00  1.02527E+03  3.399E+00  4.929E+01  5.022E+00 -4.269E-01
   2   13    5     8     2    2.5170E+02 -4.0825E+00   2.5763E+02  1.854E+00  0.000E+00  0.000E+00  1.01906E+03  3.435E+00  4.981E+01  5.076E+00 -2.681E-01
   2   13    4     8     3    2.5763E+02 -5.4771E+00   2.6496E+02  1.854E+00  0.000E+00  0.000E+00  1.01284E+03  3.469E+00  5.029E+01  5.125E+00 -3.562E-01
   2   13    3     8     4    2.6496E+02 -6.6007E+00   2.7342E+02  1.854E+00  0.000E+00  0.000E+00  1.00663E+03  3.508E+00  5.086E+01  5.183E+00 -4.245E-01
   2   13    2     8     5    2.7342E+02 -1.2331E+01   2.8760E+02  1.854E+00  0.000E+00  0.000E+00  1.00044E+03  3.562E+00  5.165E+01  5.263E+00 -7.809E-01
   2   13    1     8     6    2.8760E+02 -4.2286E+00   2.9294E+02  1.112E+00  0.000E+00  0.000E+00  9.95483E+02  3.608E+00  5.232E+01  3.199E+00 -4.406E-01
   2    4    5     9     1    0.0000E+00  0.0000E+00   0.0000E+00  0.000E+00  0.000E+00  0.000E+00  1.06027E+03  2.749E-01  2.000E+01  0.000E+00 -2.787E-01
   2    4    5    10     1    0.0000E+00  0.0000E+00   0.0000E+00  0.000E+00  0.000E+00  0.000E+00  1.08000E+03  0.000E+00  2.000E+01  2.000E-03  1.000E+00





     0  LAKE CELLS ARE DRY.

 PERIOD     5     TIME STEP    15     TIME STEP LENGTH  1.7520E+05
 PERIOD TIME  2.6280E+06     TOTAL SIMULATION TIME  1.3140E+07


                 HYDROLOGIC BUDGET SUMMARIES FOR SIMULATED LAKES
     (ALL FLUID FLUXES ARE VOLUMES ADDED TO THE LAKE DURING PRESENT TIME STEP)
     ----------------------------------------------------------------------------------------
 LAKE    STAGE         VOLUME     VOL. CHANGE      PRECIP     EVAPORATION    SPECIFIED RUNOFF     COMPUTED RUNOFF    TOTAL RUNOFF
   1  1.082257E+03  7.983096E+07 -1.315262E+07  0.000000E+00  1.429427E+05   0.000000E+00          0.000000E+00      0.000000E+00

            GROUND WATER            SURFACE WATER        WATER          UZF INFIL.
 LAKE    INFLOW     OUTFLOW      INFLOW     OUTFLOW       USE        FROM LAKE
   1  0.0000E+00  0.0000E+00  0.0000E+00  0.0000E+00  0.0000E+00       1.3010E+07

      CONNECTED LAKE   TIME-STEP         STAGE-CHANGE          PERCENT
 LAKE    INFLUX      SURFACE AREA   TIME STEP  CUMULATIVE    DISCREPANCY
   1   0.0000E+00     2.0397E+07  -6.1540E-01  7.7574E+00      -0.000
 --------------------------------------------------------------------------------



            CUMULATIVE HYDROLOGIC BUDGET SUMMARIES FOR SIMULATED LAKES
     (ALL FLUID FLUXES ARE SUMS OF VOLUMES ADDED TO THE LAKE SINCE INITIAL TIME)
     ---------------------------------------------------------------------------
 LAKE       PRECIP       EVAP     SPECIFIED RUNOFF   COMPUTED RUNOFF   TOTAL RUNOFF
   1     0.0000E+00  7.4234E+05       0.0000E+00       0.0000E+00       0.0000E+00

            GROUND WATER            SURFACE WATER       UZF INFIL.
 LAKE    INFLOW     OUTFLOW      INFLOW     OUTFLOW     FROM LAKE
   1  0.0000E+00  0.0000E+00  1.9325E+08  4.8785E+07    6.3891E+07

         WATER    CONNECTED LAKE   CHANGE       PERCENT
 LAKE     USE         INFLUX       IN VOL.    DISCREPANCY
   1   0.0000E+00   0.0000E+00   7.9831E+07     -0.000
 --------------------------------------------------------------------------------

 UBDSV3 SAVING "           GW ET" ON UNIT  61 AT TIME STEP 15, STRESS PERIOD 5
 UBDSV3 SAVING "    UZF RECHARGE" ON UNIT  61 AT TIME STEP 15, STRESS PERIOD 5
 UBDSV3 SAVING " SURFACE LEAKAGE" ON UNIT  61 AT TIME STEP 15, STRESS PERIOD 5


UNSATURATED ZONE PACKAGE VOLUMETRIC BUDGET FOR  TIME STEP    15 STRESS PERIOD    5
  ------------------------------------------------------------------------------



     CUMULATIVE VOLUMES      L**3       RATES FOR THIS TIME STEP      L**3/T
     ------------------                 ------------------------

           IN:                                      IN:
           ---                                      ---
        INFILTRATION =  1020335371.2224          INFILTRATION =         116.1586

          OUT:                                     OUT:
          ----                                     ----
              UZF ET =   918028243.8619                UZF ET =          80.3076
        UZF RECHARGE =   409397726.1408          UZF RECHARGE =         156.5564

            IN - OUT =  -307090598.7803              IN - OUT =        -120.7054

          STORAGE:                                 STORAGE:
          --------                                 --------
      STORAGE CHANGE =  -306585428.5664        STORAGE CHANGE =        -119.9399

 PERCENT DISCREPANCY IS DIFFERENCE BETWEEN IN-OUT MINUS CHANGE IN STORAGE
 DIVIDED BY THE AVERAGE OF IN AND OUT TIMES 100

 PERCENT DISCREPANCY =          -0.01     PERCENT DISCREPANCY =          -0.32






1
  VOLUMETRIC BUDGET FOR ENTIRE MODEL AT END OF TIME STEP   15, STRESS PERIOD   5
  ------------------------------------------------------------------------------

     CUMULATIVE VOLUMES      L**3       RATES FOR THIS TIME STEP      L**3/T
     ------------------                 ------------------------

           IN:                                      IN:
           ---                                      ---
             STORAGE     =    50347724.0000               STORAGE     =          49.1304
       CONSTANT HEAD     =           0.0000         CONSTANT HEAD     =           0.0000
               WELLS     =           0.0000                 WELLS     =           0.0000
     HEAD DEP BOUNDS     =     2820819.5000       HEAD DEP BOUNDS     =           0.2135
      STREAM LEAKAGE     =   867445184.0000        STREAM LEAKAGE     =          76.8193
       LAKE  SEEPAGE     =           0.0000         LAKE  SEEPAGE     =           0.0000
        UZF RECHARGE     =   409397696.0000          UZF RECHARGE     =         156.5564
               GW ET     =           0.0000                 GW ET     =           0.0000
     SURFACE LEAKAGE     =           0.0000       SURFACE LEAKAGE     =           0.0000

                TOTAL IN =  1330011392.0000                  TOTAL IN =         282.7195

          OUT:                                     OUT:
          ----                                     ----
             STORAGE     =   647509184.0000               STORAGE     =         188.4065
       CONSTANT HEAD     =           0.0000         CONSTANT HEAD     =           0.0000
               WELLS     =   236520000.0000                 WELLS     =          30.0000
     HEAD DEP BOUNDS     =     3849877.7500       HEAD DEP BOUNDS     =           0.3346
      STREAM LEAKAGE     =   236370048.0000        STREAM LEAKAGE     =          39.3806
       LAKE  SEEPAGE     =           0.0000         LAKE  SEEPAGE     =           0.0000
        UZF RECHARGE     =           0.0000          UZF RECHARGE     =           0.0000
               GW ET     =   165188544.0000                 GW ET     =          14.5622
     SURFACE LEAKAGE     =    40554484.0000       SURFACE LEAKAGE     =          10.0328

               TOTAL OUT =  1329992192.0000                 TOTAL OUT =         282.7167

                IN - OUT =       19200.0000                  IN - OUT =       2.7771E-03

     PERCENT DISCREPANCY =           0.00         PERCENT DISCREPANCY =           0.00






         TIME SUMMARY AT END OF TIME STEP   15 IN STRESS PERIOD    5
                    SECONDS     MINUTES      HOURS       DAYS        YEARS
                    -----------------------------------------------------------
   TIME STEP LENGTH 1.75200E+05  2920.0      48.667      2.0278     5.55175E-03
 STRESS PERIOD TIME 2.62800E+06  43800.      730.00      30.417     8.32763E-02
         TOTAL TIME 1.31400E+07 2.19000E+05  3650.0      152.08     0.41638    
1
1
                            STRESS PERIOD NO.    6, LENGTH =   2628000.    
                            -----------------------------------------------

                              NUMBER OF TIME STEPS =    15

                               MULTIPLIER FOR DELT =     1.000

                            INITIAL TIME STEP SIZE =   175200.0    

      0 WELLS

 REUSING NON-PARAMETER GHB CELLS FROM LAST STRESS PERIOD

      2 GHB CELLS

 REUSING STREAM SEGMENT DATA FROM LAST STRESS PERIOD



            AREAL INFILTRATION RATE
 READING ON UNIT   19 WITH FORMAT: (10F4.0)            

            1           2           3           4           5           6           7           8           9          10
 ........................................................................................................................
   1   1.0000E-08  2.0000E-08   0.000       0.000       0.000       0.000       0.000       0.000       0.000       0.000    
   2   2.0000E-08  1.0000E-08  2.0000E-08   0.000       0.000      8.0000E-08  8.0000E-08  5.0000E-08   0.000       0.000    
   3    0.000      5.0000E-08  1.0000E-08  1.0000E-08  8.0000E-08  8.0000E-08  5.0000E-08  5.0000E-08   0.000       0.000    
   4   8.0000E-08  5.0000E-08  1.0000E-08  1.0000E-08  1.0000E-08  1.0000E-08  1.0000E-08  1.0000E-08  2.0000E-08   0.000    
   5   8.0000E-08  5.0000E-08  1.0000E-08  1.0000E-08  1.0000E-08  1.0000E-08  1.0000E-08  1.0000E-08  1.0000E-08  1.0000E-08
   6   8.0000E-08  5.0000E-08  5.0000E-08  2.0000E-08  2.0000E-08  1.0000E-08  1.0000E-08  1.0000E-08  1.0000E-08  5.0000E-08
   7   8.0000E-08  5.0000E-08  5.0000E-08  2.0000E-08  2.0000E-08  1.0000E-08  1.0000E-08  2.0000E-08  2.0000E-08   0.000    
   8    0.000      5.0000E-08  5.0000E-08  2.0000E-08  2.0000E-08  1.0000E-08  1.0000E-08  2.0000E-08  5.0000E-08   0.000    
   9    0.000      5.0000E-08  5.0000E-08  2.0000E-08  2.0000E-08  1.0000E-08  1.0000E-08  2.0000E-08  5.0000E-08   0.000    
  10    0.000      5.0000E-08  5.0000E-08  2.0000E-08  2.0000E-08  1.0000E-08  1.0000E-08  2.0000E-08  5.0000E-08  8.0000E-08
  11    0.000      1.0000E-08  1.0000E-08  1.0000E-08  1.0000E-08  1.0000E-08  1.0000E-08  2.0000E-08  5.0000E-08   0.000    
  12   1.0000E-08  1.0000E-08  1.0000E-08  1.0000E-08  1.0000E-08  1.0000E-08  1.0000E-08  1.0000E-08  2.0000E-08   0.000    
  13   1.0000E-08  1.0000E-08  2.0000E-08  2.0000E-08  2.0000E-08  2.0000E-08  2.0000E-08  1.0000E-08  1.0000E-08   0.000    
  14    0.000      2.0000E-08  5.0000E-08  5.0000E-08  5.0000E-08  5.0000E-08  5.0000E-08  2.0000E-08  1.0000E-08   0.000    
  15    0.000       0.000      8.0000E-08  8.0000E-08  8.0000E-08  8.0000E-08   0.000       0.000       0.000       0.000    

USING ET RATE FROM PREVIOUS STRESS PERIOD. CURRENT PERIOD IS:       6

 USING ET EXTINCTION DEPTH FROM PREVIOUS STRESS PERIOD. CURRENT PERIOD IS:       6

 USING EXTINCTION WATER CONTENT FROM PREVIOUS STRESS PERIOD. CURRENT PERIOD IS:       6




 If any subsequent steady-state stress periods, min. and max. stages for each lake will be read in Record 9a.




 REUSING LAKE CONFIGURATION DATA FROM LAST STRESS PERIOD


 LAKE       PRECIP     EVAP     RUNOFF   WITHDRAW   BOTTOM     AREA
----------------------------------------------------------------------
   1     0.000E+00 4.000E-08 0.000E+00  0.000E+00 1.074E+03 2.500E+07




         C               INTERFACE CONDUCTANCES BETWEEN LAKE AND AQUIFER CELLS
   L     O          (IF TYPE = 6, CONDUCTANCE (L^2/T) IS BETWEEN AQUIFER CELL AND OVERLYING LAKE CELL.)
   A     L  L  T    (IF TYPE = 1 TO 4, CONDUCTANCES ARE PER UNIT SATURATED THICKNESS (L/T).)
   Y  R  U  A  Y
   E  O  M  K  P                        LAKEBED      C O N D U C T A N C E S
   R  W  N  E  E     DELTA Y   DELTA X  LEAKANCE   LAKEBED   AQUIFER  COMBINED
 _______________________________________________________________________________
   1  4  4  1  2    5.00E+03  5.00E+03  5.00E-02  2.50E+02  6.00E-03  6.00E-03
   1  3  5  1  3    5.00E+03  5.00E+03  5.00E-02  2.50E+02  1.20E-03  1.20E-03
   2  4  5  1  6    5.00E+03  5.00E+03  5.00E-02  1.25E+06  9.42E+00  9.42E+00
   1  5  5  1  4    5.00E+03  5.00E+03  5.00E-02  2.50E+02  6.00E-03  6.00E-03
   1  4  6  1  1    5.00E+03  5.00E+03  5.00E-02  2.50E+02  6.00E-03  6.00E-03
 
      DEAD POOL STORAGE FOR LAKE    1 BELOW SEGMENT   10 IS EQUAL TO     0.1200000000E+09
 
      LAKE     INFLOWING STREAM SEGMENT
         1                  9

 MAXIMUM NUMBER OF STREAMS INFLOWING TO A LAKE IS    1

      LAKE     OUTFLOWING STREAM SEGMENT
         1                 10

 MAXIMUM NUMBER OF STREAMS OUTFLOWING FROM A LAKE IS    1

 
 SOLVING FOR HEAD 
                                                   Max.-Head-Change                         Max.-Flux-Residual
  Residual-Control   Outer-Iter.   Inner-Iter.     Column Row Layer    Maximum-Head-Change  Column Row Layer    Maximum-Flux-Residual          L2-NORM 
          0                 1           2             5    4     2       0.1576232039E+01       5    4    2         0.4567044404E+02      0.5348818645E+02
          0                 2           2             5    4     2       0.4350867969E+00       5    4    2         0.1294567082E+02      0.1303478171E+02
          0                 3           2             5    4     2       0.1166922672E+00       5    4    2         0.3456019439E+01      0.3457611630E+01
          0                 4           2             5    4     2       0.3116723280E-01       5    4    2         0.9239083269E+00      0.9239523578E+00
          0                 5           2             5    4     2       0.8323587491E-02       5    4    2         0.2467047342E+00      0.2467216757E+00
          0                 6           2             5    4     2       0.2223011442E-02       5    4    2         0.6589079441E-01      0.6589497888E-01
          0                 7           1             5    4     2       0.5937066893E-03       5    4    2         0.1759757737E-01      0.1759871117E-01

    ------------------------------------------------
       NWT REQUIRED            7 OUTER ITERATIONS 
       AND A TOTAL OF         13 INNER ITERATIONS.
    ------------------------------------------------

 NO OUTPUT CONTROL FOR STRESS PERIOD    6   TIME STEP    1
 
 SOLVING FOR HEAD 
                                                   Max.-Head-Change                         Max.-Flux-Residual
  Residual-Control   Outer-Iter.   Inner-Iter.     Column Row Layer    Maximum-Head-Change  Column Row Layer    Maximum-Flux-Residual          L2-NORM 
          0                 1           2             5    4     2       0.1116231947E+01       5    4    2         0.3188481174E+02      0.4145638361E+02
          0                 2           2             5    4     2       0.2904442887E+00       5    4    2         0.8676948996E+01      0.8826566293E+01
          0                 3           2             5    4     2       0.7461136363E-01       5    4    2         0.2212112607E+01      0.2214200639E+01
          0                 4           2             5    4     2       0.1920595529E-01       5    4    2         0.5692155210E+00      0.5695727774E+00
          0                 5           2             5    4     2       0.4944468017E-02       5    4    2         0.1465368659E+00      0.1466315759E+00
          0                 6           2             5    4     2       0.1272948708E-02       5    4    2         0.3772586416E-01      0.3775026002E-01
          0                 7           1             5    4     2       0.3277204113E-03       5    4    2         0.9712550650E-02      0.9718818008E-02

    ------------------------------------------------
       NWT REQUIRED            7 OUTER ITERATIONS 
       AND A TOTAL OF         13 INNER ITERATIONS.
    ------------------------------------------------

 NO OUTPUT CONTROL FOR STRESS PERIOD    6   TIME STEP    2
 
 SOLVING FOR HEAD 
                                                   Max.-Head-Change                         Max.-Flux-Residual
  Residual-Control   Outer-Iter.   Inner-Iter.     Column Row Layer    Maximum-Head-Change  Column Row Layer    Maximum-Flux-Residual          L2-NORM 
          0                 1           2             5    4     2       0.7534620492E+00       5    4    2         0.2107210977E+02      0.3372954603E+02
          0                 2           2             5    4     2       0.1884696570E+00       5    4    2         0.5666984545E+01      0.5903044357E+01
          0                 3           2             5    4     2       0.4653626343E-01       5    4    2         0.1379816354E+01      0.1382473640E+01
          0                 4           2             5    4     2       0.1151987758E-01       5    4    2         0.3415444583E+00      0.3417826500E+00
          0                 5           2             5    4     2       0.2851916977E-02       5    4    2         0.8455194285E-01      0.8461160198E-01
          0                 6           1             5    4     2       0.7060432143E-03       5    4    2         0.2093239843E-01      0.2094716177E-01

    ------------------------------------------------
       NWT REQUIRED            6 OUTER ITERATIONS 
       AND A TOTAL OF         11 INNER ITERATIONS.
    ------------------------------------------------

 NO OUTPUT CONTROL FOR STRESS PERIOD    6   TIME STEP    3
 
 SOLVING FOR HEAD 
                                                   Max.-Head-Change                         Max.-Flux-Residual
  Residual-Control   Outer-Iter.   Inner-Iter.     Column Row Layer    Maximum-Head-Change  Column Row Layer    Maximum-Flux-Residual          L2-NORM 
          0                 1           2             5    4     2       0.4636447165E+00       5    4    2         0.1246202976E+02      0.2787734907E+02
          0                 2           2             5    4     2       0.1119103272E+00       5    4    2         0.3394846608E+01      0.3714315956E+01
          0                 3           2             5    4     2       0.2641423150E-01       5    4    2         0.7827696968E+00      0.7858338365E+00
          0                 4           2             5    4     2       0.6260937950E-02       5    4    2         0.1856477947E+00      0.1857956411E+00
          0                 5           2             5    4     2       0.1484021581E-02       5    4    2         0.4400266857E-01      0.4403704645E-01
          0                 6           1             5    4     2       0.3517573181E-03       5    4    2         0.1043000645E-01      0.1043812563E-01

    ------------------------------------------------
       NWT REQUIRED            6 OUTER ITERATIONS 
       AND A TOTAL OF         11 INNER ITERATIONS.
    ------------------------------------------------

 NO OUTPUT CONTROL FOR STRESS PERIOD    6   TIME STEP    4
 
 SOLVING FOR HEAD 
                                                   Max.-Head-Change                         Max.-Flux-Residual
  Residual-Control   Outer-Iter.   Inner-Iter.     Column Row Layer    Maximum-Head-Change  Column Row Layer    Maximum-Flux-Residual          L2-NORM 
          0                 1           2             4    4     2       0.3788286627E+00       4    4    2         0.1072284753E+02      0.2416679448E+02
          0                 2           2             5    4     2       0.5413989225E-01       5    4    2         0.1677678725E+01      0.2172615073E+01
          0                 3           2             5    4     2       0.1212235221E-01       5    4    2         0.3584919910E+00      0.3630030005E+00
          0                 4           2             5    4     2       0.2737371866E-02       5    4    2         0.8116254369E-01      0.8124278829E-01
          0                 5           1             5    4     2       0.6180053271E-03       5    4    2         0.1832317517E-01      0.1833906042E-01

    ------------------------------------------------
       NWT REQUIRED            5 OUTER ITERATIONS 
       AND A TOTAL OF          9 INNER ITERATIONS.
    ------------------------------------------------

 OUTPUT CONTROL FOR STRESS PERIOD    6   TIME STEP    5
    PRINT BUDGET
    SAVE BUDGET

  HEAD DEP BOUNDS   PERIOD    6   STEP     5
 BOUNDARY      1   LAYER   2   ROW    13   COL     1   RATE   -0.321256    
 BOUNDARY      2   LAYER   2   ROW    14   COL     9   RATE    0.213581    



 STREAM LISTING     PERIOD      6   STEP        5

 LAYER ROW COL. STREAM  RCH.  FLOW INTO     FLOW TO   FLOW OUT OF   OVRLND.     DIRECT     STREAM       STREAM     STREAM     STREAM   STREAMBED  STREAMBED
                SEG.NO.  NO.  STRM. RCH.    AQUIFER    STRM. RCH.    RUNOFF     PRECIP       ET          HEAD       DEPTH      WIDTH   CONDCTNC.   GRADIENT

   2    1    1     1     1    1.0000E+02  1.5435E+00   9.8457E+01  0.000E+00  0.000E+00  0.000E+00  1.09484E+03  1.797E+00  2.194E+01  9.875E-01  5.210E-01
   2    2    2     1     2    9.8457E+01  7.1580E+00   9.1299E+01  0.000E+00  0.000E+00  0.000E+00  1.08984E+03  1.781E+00  2.162E+01  1.513E+00  1.577E+00
   2    3    3     1     3    9.1299E+01  6.0241E+00   8.5275E+01  0.000E+00  0.000E+00  0.000E+00  1.08417E+03  1.756E+00  2.111E+01  1.267E+00  1.585E+00
   2    3    4     1     4    8.5275E+01  5.4233E+00   7.9851E+01  0.000E+00  0.000E+00  0.000E+00  1.07914E+03  1.733E+00  2.065E+01  1.146E+00  1.578E+00
   2    4    5     2     1    6.9851E+01  0.0000E+00   6.9851E+01  0.000E+00  0.000E+00  0.000E+00  1.07417E+03  2.237E+00  1.200E+01  0.000E+00  1.746E+00
   2    5    6     2     2    6.9851E+01  3.1241E+00   6.6727E+01  0.000E+00  0.000E+00  0.000E+00  1.06872E+03  2.207E+00  1.200E+01  6.000E-01  1.736E+00
   2    6    6     2     3    6.6727E+01  3.0876E+00   6.3640E+01  0.000E+00  0.000E+00  0.000E+00  1.06394E+03  2.146E+00  1.200E+01  6.000E-01  1.715E+00
   2    7    6     2     4    6.3640E+01  3.0509E+00   6.0589E+01  0.000E+00  0.000E+00  0.000E+00  1.05916E+03  2.085E+00  1.200E+01  6.000E-01  1.695E+00
   2    8    6     2     5    6.0589E+01  3.0139E+00   5.7575E+01  0.000E+00  0.000E+00  0.000E+00  1.05438E+03  2.023E+00  1.200E+01  6.000E-01  1.674E+00
   2    3    5     3     1    1.0000E+01  2.8252E+00   7.1748E+00  0.000E+00  0.000E+00  0.000E+00  1.07555E+03  1.909E+00  9.636E+00  7.227E-01  1.955E+00
   2    3    6     3     2    7.1748E+00  2.4905E+00   4.6843E+00  0.000E+00  0.000E+00  0.000E+00  1.07264E+03  1.727E+00  8.909E+00  6.682E-01  1.864E+00
   2    3    7     3     3    4.6843E+00  1.9718E+00   2.7125E+00  0.000E+00  0.000E+00  0.000E+00  1.06987E+03  1.555E+00  8.218E+00  5.547E-01  1.777E+00
   2    4    8     3     4    2.7125E+00  2.2567E+00   4.5579E-01  0.000E+00  0.000E+00  0.000E+00  1.06682E+03  1.364E+00  7.455E+00  6.709E-01  1.682E+00
   2    5    8     3     5    4.5579E-01  4.5579E-01   0.0000E+00  0.000E+00  0.000E+00  0.000E+00  1.06362E+03  0.000E+00  6.655E+00  4.991E-01  1.582E+00
   2    6    8     3     6    0.0000E+00  0.0000E+00   0.0000E+00  0.000E+00  0.000E+00  0.000E+00  1.06055E+03  0.000E+00  6.145E+00  1.844E-01  1.000E+00
   2    5   10     4     1    1.0000E+01  9.0525E-01   9.0947E+00  0.000E+00  0.000E+00  0.000E+00  1.07835E+03  6.210E-01  1.000E+01  2.500E-01  1.207E+00
   2    5    9     4     2    9.0947E+00  1.7835E+00   7.3113E+00  0.000E+00  0.000E+00  0.000E+00  1.07148E+03  5.670E-01  1.000E+01  5.000E-01  1.189E+00
   2    6    8     4     3    7.3113E+00  1.2257E+00   6.0855E+00  0.000E+00  0.000E+00  0.000E+00  1.06368E+03  5.021E-01  1.000E+01  3.500E-01  1.167E+00
   2    6    8     5     1    6.0855E+00  1.4716E+00   4.6139E+00  0.000E+00  0.000E+00  0.000E+00  1.05854E+03  5.396E-01  1.039E+01  4.158E-01  1.180E+00
   2    7    7     5     2    4.6139E+00  1.4897E+00   3.1242E+00  0.000E+00  0.000E+00  0.000E+00  1.05398E+03  4.817E-01  8.557E+00  4.279E-01  1.161E+00
   2    8    7     5     3    3.1242E+00  8.2855E-01   2.2957E+00  0.000E+00  0.000E+00  0.000E+00  1.04968E+03  4.253E-01  6.911E+00  2.419E-01  1.142E+00
   2    8    6     5     4    2.2957E+00  4.9455E-01   1.8011E+00  0.000E+00  0.000E+00  0.000E+00  1.04664E+03  3.856E-01  5.843E+00  1.461E-01  1.129E+00
   2    9    6     6     1    5.9376E+01  3.0123E+00   5.6364E+01  0.000E+00  0.000E+00  0.000E+00  1.04475E+03  2.020E+00  1.200E+01  6.000E-01  1.673E+00
   2   10    7     6     2    5.6364E+01  2.9742E+00   5.3390E+01  0.000E+00  0.000E+00  0.000E+00  1.04014E+03  1.957E+00  1.200E+01  6.000E-01  1.652E+00
   2   11    7     6     3    5.3390E+01  2.8555E+00   5.0534E+01  0.000E+00  0.000E+00  0.000E+00  1.03553E+03  1.894E+00  1.200E+01  6.000E-01  1.586E+00
   2   12    7     6     4    5.0534E+01  1.1436E+00   4.9390E+01  0.000E+00  0.000E+00  0.000E+00  1.03094E+03  1.850E+00  1.200E+01  6.000E-01  6.354E-01
   2   13    7     6     5    4.9390E+01 -4.2229E-01   4.9813E+01  0.000E+00  0.000E+00  0.000E+00  1.02775E+03  1.842E+00  1.200E+01  2.400E-01 -5.865E-01
   2   14    9     7     1    1.5000E+02  2.7133E+00   1.4729E+02  0.000E+00  0.000E+00  0.000E+00  1.03986E+03  2.284E+00  5.528E+01  5.591E+00  1.618E-01
   2   13    8     7     2    1.4729E+02  3.5500E+00   1.4374E+02  0.000E+00  0.000E+00  0.000E+00  1.03477E+03  2.267E+00  5.520E+01  6.141E+00  1.927E-01
   2   13    7     7     3    1.4374E+02  9.1544E-01   1.4282E+02  0.000E+00  0.000E+00  0.000E+00  1.02967E+03  2.255E+00  5.515E+01  5.577E+00  5.471E-02
   2   13    6     8     1    1.9263E+02 -1.6695E+00   1.9455E+02  2.492E-01  0.000E+00  0.000E+00  1.02497E+03  3.100E+00  4.494E+01  4.580E+00 -1.215E-01
   2   13    5     8     2    1.9455E+02 -3.5109E+00   1.9831E+02  2.492E-01  0.000E+00  0.000E+00  1.01874E+03  3.117E+00  4.519E+01  4.605E+00 -2.541E-01
   2   13    4     8     3    1.9831E+02 -5.5719E+00   2.0413E+02  2.492E-01  0.000E+00  0.000E+00  1.01252E+03  3.145E+00  4.560E+01  4.647E+00 -3.997E-01
   2   13    3     8     4    2.0413E+02 -6.5176E+00   2.1090E+02  2.492E-01  0.000E+00  0.000E+00  1.00631E+03  3.181E+00  4.613E+01  4.701E+00 -4.622E-01
   2   13    2     8     5    2.1090E+02 -7.1058E+00   2.1826E+02  2.492E-01  0.000E+00  0.000E+00  1.00010E+03  3.222E+00  4.671E+01  4.760E+00 -4.976E-01
   2   13    1     8     6    2.1826E+02 -3.8241E+00   2.2223E+02  1.495E-01  0.000E+00  0.000E+00  9.95128E+02  3.253E+00  4.717E+01  2.884E+00 -4.420E-01
   2    4    5     9     1    0.0000E+00  0.0000E+00   0.0000E+00  0.000E+00  0.000E+00  0.000E+00  1.06166E+03  1.659E+00  2.000E+01  0.000E+00 -1.681E+00
   2    4    5    10     1    0.0000E+00  0.0000E+00   0.0000E+00  0.000E+00  0.000E+00  0.000E+00  1.08000E+03  0.000E+00  2.000E+01  2.000E-03  1.000E+00





     0  LAKE CELLS ARE DRY.

 PERIOD     6     TIME STEP     5     TIME STEP LENGTH  1.7520E+05
 PERIOD TIME  8.7600E+05     TOTAL SIMULATION TIME  1.4016E+07


                 HYDROLOGIC BUDGET SUMMARIES FOR SIMULATED LAKES
     (ALL FLUID FLUXES ARE VOLUMES ADDED TO THE LAKE DURING PRESENT TIME STEP)
     ----------------------------------------------------------------------------------------
 LAKE    STAGE         VOLUME     VOL. CHANGE      PRECIP     EVAPORATION    SPECIFIED RUNOFF     COMPUTED RUNOFF    TOTAL RUNOFF
   1  1.079197E+03  2.942867E+07 -8.040710E+06  0.000000E+00  8.642383E+04   0.000000E+00          0.000000E+00      0.000000E+00

            GROUND WATER            SURFACE WATER        WATER          UZF INFIL.
 LAKE    INFLOW     OUTFLOW      INFLOW     OUTFLOW       USE        FROM LAKE
   1  0.0000E+00  0.0000E+00  0.0000E+00  0.0000E+00  0.0000E+00       7.9543E+06

      CONNECTED LAKE   TIME-STEP         STAGE-CHANGE          PERCENT
 LAKE    INFLUX      SURFACE AREA   TIME STEP  CUMULATIVE    DISCREPANCY
   1   0.0000E+00     1.2332E+07  -6.0686E-01  4.6969E+00      -0.000
 --------------------------------------------------------------------------------



            CUMULATIVE HYDROLOGIC BUDGET SUMMARIES FOR SIMULATED LAKES
     (ALL FLUID FLUXES ARE SUMS OF VOLUMES ADDED TO THE LAKE SINCE INITIAL TIME)
     ---------------------------------------------------------------------------
 LAKE       PRECIP       EVAP     SPECIFIED RUNOFF   COMPUTED RUNOFF   TOTAL RUNOFF
   1     0.0000E+00  1.2879E+06       0.0000E+00       0.0000E+00       0.0000E+00

            GROUND WATER            SURFACE WATER       UZF INFIL.
 LAKE    INFLOW     OUTFLOW      INFLOW     OUTFLOW     FROM LAKE
   1  0.0000E+00  0.0000E+00  1.9325E+08  4.8785E+07    1.1375E+08

         WATER    CONNECTED LAKE   CHANGE       PERCENT
 LAKE     USE         INFLUX       IN VOL.    DISCREPANCY
   1   0.0000E+00   0.0000E+00   2.9429E+07     -0.000
 --------------------------------------------------------------------------------

 UBDSV3 SAVING "           GW ET" ON UNIT  61 AT TIME STEP 5, STRESS PERIOD 6
 UBDSV3 SAVING "    UZF RECHARGE" ON UNIT  61 AT TIME STEP 5, STRESS PERIOD 6
 UBDSV3 SAVING " SURFACE LEAKAGE" ON UNIT  61 AT TIME STEP 5, STRESS PERIOD 6


UNSATURATED ZONE PACKAGE VOLUMETRIC BUDGET FOR  TIME STEP     5 STRESS PERIOD    6
  ------------------------------------------------------------------------------



     CUMULATIVE VOLUMES      L**3       RATES FOR THIS TIME STEP      L**3/T
     ------------------                 ------------------------

           IN:                                      IN:
           ---                                      ---
        INFILTRATION =  1143898575.2654          INFILTRATION =         129.6932

          OUT:                                     OUT:
          ----                                     ----
              UZF ET =   981410605.8991                UZF ET =          63.5383
        UZF RECHARGE =   507619499.5193          UZF RECHARGE =          89.9317

            IN - OUT =  -345131530.1530              IN - OUT =         -23.7768

          STORAGE:                                 STORAGE:
          --------                                 --------
      STORAGE CHANGE =  -344513956.9887        STORAGE CHANGE =         -23.7363

 PERCENT DISCREPANCY IS DIFFERENCE BETWEEN IN-OUT MINUS CHANGE IN STORAGE
 DIVIDED BY THE AVERAGE OF IN AND OUT TIMES 100

 PERCENT DISCREPANCY =          -0.01     PERCENT DISCREPANCY =          -0.03






1
  VOLUMETRIC BUDGET FOR ENTIRE MODEL AT END OF TIME STEP    5, STRESS PERIOD   6
  ------------------------------------------------------------------------------

     CUMULATIVE VOLUMES      L**3       RATES FOR THIS TIME STEP      L**3/T
     ------------------                 ------------------------

           IN:                                      IN:
           ---                                      ---
             STORAGE     =    72953224.0000               STORAGE     =          18.8934
       CONSTANT HEAD     =           0.0000         CONSTANT HEAD     =           0.0000
               WELLS     =           0.0000                 WELLS     =           0.0000
     HEAD DEP BOUNDS     =     3007876.7500       HEAD DEP BOUNDS     =           0.2136
      STREAM LEAKAGE     =   930053952.0000        STREAM LEAKAGE     =          67.7883
       LAKE  SEEPAGE     =           0.0000         LAKE  SEEPAGE     =           0.0000
        UZF RECHARGE     =   507619456.0000          UZF RECHARGE     =          89.9317
               GW ET     =           0.0000                 GW ET     =           0.0000
     SURFACE LEAKAGE     =           0.0000       SURFACE LEAKAGE     =           0.0000

                TOTAL IN =  1513634560.0000                  TOTAL IN =         176.8270

          OUT:                                     OUT:
          ----                                     ----
             STORAGE     =   787806976.0000               STORAGE     =         132.3082
       CONSTANT HEAD     =           0.0000         CONSTANT HEAD     =           0.0000
               WELLS     =   236520000.0000                 WELLS     =           0.0000
     HEAD DEP BOUNDS     =     4135220.0000       HEAD DEP BOUNDS     =           0.3213
      STREAM LEAKAGE     =   264113600.0000        STREAM LEAKAGE     =          28.6221
       LAKE  SEEPAGE     =           0.0000         LAKE  SEEPAGE     =           0.0000
        UZF RECHARGE     =           0.0000          UZF RECHARGE     =           0.0000
               GW ET     =   177869808.0000                 GW ET     =          14.3832
     SURFACE LEAKAGE     =    43166088.0000       SURFACE LEAKAGE     =           1.1878

               TOTAL OUT =  1513611648.0000                 TOTAL OUT =         176.8226

                IN - OUT =       22912.0000                  IN - OUT =       4.4556E-03

     PERCENT DISCREPANCY =           0.00         PERCENT DISCREPANCY =           0.00






         TIME SUMMARY AT END OF TIME STEP    5 IN STRESS PERIOD    6
                    SECONDS     MINUTES      HOURS       DAYS        YEARS
                    -----------------------------------------------------------
   TIME STEP LENGTH 1.75200E+05  2920.0      48.667      2.0278     5.55175E-03
 STRESS PERIOD TIME 8.76000E+05  14600.      243.33      10.139     2.77588E-02
         TOTAL TIME 1.40160E+07 2.33600E+05  3893.3      162.22     0.44414    
1
 
 SOLVING FOR HEAD 
                                                   Max.-Head-Change                         Max.-Flux-Residual
  Residual-Control   Outer-Iter.   Inner-Iter.     Column Row Layer    Maximum-Head-Change  Column Row Layer    Maximum-Flux-Residual          L2-NORM 
          0                 1           2             6    4     2       0.3471486055E+00       4    4    2         0.9897037677E+01      0.2195806319E+02
          0                 2           2             5    3     2      -0.1989984991E-01       6    4    2        -0.5013444117E+00      0.1309890819E+01
          0                 3           2             5    4     2       0.2323007998E-02       5    4    2         0.6796757917E-01      0.8062008258E-01
          0                 4           1             5    4     2       0.4974412730E-03       5    4    2         0.1472705850E-01      0.1477543823E-01

    ------------------------------------------------
       NWT REQUIRED            4 OUTER ITERATIONS 
       AND A TOTAL OF          7 INNER ITERATIONS.
    ------------------------------------------------

 NO OUTPUT CONTROL FOR STRESS PERIOD    6   TIME STEP    6
 
 SOLVING FOR HEAD 
                                                   Max.-Head-Change                         Max.-Flux-Residual
  Residual-Control   Outer-Iter.   Inner-Iter.     Column Row Layer    Maximum-Head-Change  Column Row Layer    Maximum-Flux-Residual          L2-NORM 
          0                 1           2             6    4     2       0.3140374932E+00       6    4    2         0.9003493692E+01      0.2120045635E+02
          0                 2           2             5    4     2      -0.1934532144E-01       5    4    2        -0.5250035285E+00      0.1261895727E+01
          0                 3           2             5    4     2      -0.3943395230E-02       5    4    2        -0.1177265798E+00      0.1238762479E+00
          0                 4           1             5    4     2      -0.7880185019E-03       5    4    2        -0.2336974901E-01      0.2339478233E-01

    ------------------------------------------------
       NWT REQUIRED            4 OUTER ITERATIONS 
       AND A TOTAL OF          7 INNER ITERATIONS.
    ------------------------------------------------

 NO OUTPUT CONTROL FOR STRESS PERIOD    6   TIME STEP    7
 
 SOLVING FOR HEAD 
                                                   Max.-Head-Change                         Max.-Flux-Residual
  Residual-Control   Outer-Iter.   Inner-Iter.     Column Row Layer    Maximum-Head-Change  Column Row Layer    Maximum-Flux-Residual          L2-NORM 
          0                 1           2             5    3     2       0.2885562654E+00       6    4    2         0.8094600998E+01      0.2071912564E+02
          0                 2           2             5    4     2      -0.4043192060E-01       5    4    2        -0.1156132035E+01      0.1567907189E+01
          0                 3           2             5    4     2      -0.7552486202E-02       5    4    2        -0.2246864687E+00      0.2272418123E+00
          0                 4           2             5    4     2      -0.1398255710E-02       5    4    2        -0.4145700895E-01      0.4148594715E-01
          0                 5           1             5    4     2      -0.2591099256E-03       5    4    2        -0.7683718593E-02      0.7687551580E-02

    ------------------------------------------------
       NWT REQUIRED            5 OUTER ITERATIONS 
       AND A TOTAL OF          9 INNER ITERATIONS.
    ------------------------------------------------

 NO OUTPUT CONTROL FOR STRESS PERIOD    6   TIME STEP    8
 
 SOLVING FOR HEAD 
                                                   Max.-Head-Change                         Max.-Flux-Residual
  Residual-Control   Outer-Iter.   Inner-Iter.     Column Row Layer    Maximum-Head-Change  Column Row Layer    Maximum-Flux-Residual          L2-NORM 
          0                 1           2             5    4     2      -0.3243524494E+00       5    4    2        -0.1052035277E+02      0.2049305164E+02
          0                 2           2             5    4     2      -0.5341952948E-01       5    4    2        -0.1545808790E+01      0.1810210949E+01
          0                 3           2             5    4     2      -0.9055187760E-02       5    4    2        -0.2688105303E+00      0.2701972155E+00
          0                 4           2             5    4     2      -0.1525298541E-02       5    4    2        -0.4516805525E-01      0.4519981233E-01
          0                 5           1             5    4     2      -0.2571236438E-03       5    4    2        -0.7614970229E-02      0.7619443828E-02

    ------------------------------------------------
       NWT REQUIRED            5 OUTER ITERATIONS 
       AND A TOTAL OF          9 INNER ITERATIONS.
    ------------------------------------------------

 NO OUTPUT CONTROL FOR STRESS PERIOD    6   TIME STEP    9
 
 SOLVING FOR HEAD 
                                                   Max.-Head-Change                         Max.-Flux-Residual
  Residual-Control   Outer-Iter.   Inner-Iter.     Column Row Layer    Maximum-Head-Change  Column Row Layer    Maximum-Flux-Residual          L2-NORM 
          0                 1           2             5    4     2      -0.3976204139E+00       5    4    2        -0.1257123794E+02      0.2405290369E+02
          0                 2           2             5    4     2      -0.5769019040E-01       5    4    2        -0.1676376974E+01      0.2200473554E+01
          0                 3           2             5    4     2      -0.8683347362E-02       5    4    2        -0.2575866293E+00      0.2661067641E+00
          0                 4           2             5    4     2      -0.1322912134E-02       5    4    2        -0.3915569073E-01      0.3920736934E-01
          0                 5           1             5    4     2      -0.2017008611E-03       5    4    2        -0.5970612413E-02      0.5974854775E-02

    ------------------------------------------------
       NWT REQUIRED            5 OUTER ITERATIONS 
       AND A TOTAL OF          9 INNER ITERATIONS.
    ------------------------------------------------

 OUTPUT CONTROL FOR STRESS PERIOD    6   TIME STEP   10
    PRINT BUDGET
    SAVE BUDGET

  HEAD DEP BOUNDS   PERIOD    6   STEP    10
 BOUNDARY      1   LAYER   2   ROW    13   COL     1   RATE   -0.314258    
 BOUNDARY      2   LAYER   2   ROW    14   COL     9   RATE    0.213738    



 STREAM LISTING     PERIOD      6   STEP       10

 LAYER ROW COL. STREAM  RCH.  FLOW INTO     FLOW TO   FLOW OUT OF   OVRLND.     DIRECT     STREAM       STREAM     STREAM     STREAM   STREAMBED  STREAMBED
                SEG.NO.  NO.  STRM. RCH.    AQUIFER    STRM. RCH.    RUNOFF     PRECIP       ET          HEAD       DEPTH      WIDTH   CONDCTNC.   GRADIENT

   2    1    1     1     1    2.9880E+02  3.8940E+00   2.9491E+02  0.000E+00  0.000E+00  0.000E+00  1.09575E+03  2.700E+00  3.312E+01  1.491E+00  8.709E-01
   2    2    2     1     2    2.9491E+02  1.3001E+01   2.8190E+02  0.000E+00  0.000E+00  0.000E+00  1.09073E+03  2.671E+00  3.276E+01  2.294E+00  1.889E+00
   2    3    3     1     3    2.8190E+02  1.0892E+01   2.7101E+02  0.000E+00  0.000E+00  0.000E+00  1.08505E+03  2.629E+00  3.225E+01  1.935E+00  1.876E+00
   2    3    4     1     4    2.7101E+02  9.8652E+00   2.6115E+02  0.000E+00  0.000E+00  0.000E+00  1.08000E+03  2.592E+00  3.179E+01  1.764E+00  1.864E+00
   2    4    5     2     1    2.5115E+02  0.0000E+00   2.5115E+02  0.000E+00  0.000E+00  0.000E+00  1.07675E+03  4.821E+00  1.200E+01  0.000E+00  2.607E+00
   2    5    6     2     2    2.5115E+02  4.6762E+00   2.4647E+02  0.000E+00  0.000E+00  0.000E+00  1.07130E+03  4.794E+00  1.200E+01  6.000E-01  2.598E+00
   2    6    6     2     3    2.4647E+02  4.6437E+00   2.4183E+02  0.000E+00  0.000E+00  0.000E+00  1.06653E+03  4.740E+00  1.200E+01  6.000E-01  2.580E+00
   2    7    6     2     4    2.4183E+02  4.6113E+00   2.3722E+02  0.000E+00  0.000E+00  0.000E+00  1.06176E+03  4.685E+00  1.200E+01  6.000E-01  2.562E+00
   2    8    6     2     5    2.3722E+02  4.5788E+00   2.3264E+02  0.000E+00  0.000E+00  0.000E+00  1.05699E+03  4.631E+00  1.200E+01  6.000E-01  2.544E+00
   2    3    5     3     1    1.0000E+01  2.8252E+00   7.1748E+00  0.000E+00  0.000E+00  0.000E+00  1.07555E+03  1.909E+00  9.636E+00  7.227E-01  1.955E+00
   2    3    6     3     2    7.1748E+00  2.4905E+00   4.6843E+00  0.000E+00  0.000E+00  0.000E+00  1.07264E+03  1.727E+00  8.909E+00  6.682E-01  1.864E+00
   2    3    7     3     3    4.6843E+00  1.9718E+00   2.7125E+00  0.000E+00  0.000E+00  0.000E+00  1.06987E+03  1.555E+00  8.218E+00  5.547E-01  1.777E+00
   2    4    8     3     4    2.7125E+00  2.2567E+00   4.5579E-01  0.000E+00  0.000E+00  0.000E+00  1.06682E+03  1.364E+00  7.455E+00  6.709E-01  1.682E+00
   2    5    8     3     5    4.5579E-01  4.5579E-01   0.0000E+00  0.000E+00  0.000E+00  0.000E+00  1.06362E+03  0.000E+00  6.655E+00  4.991E-01  1.582E+00
   2    6    8     3     6    0.0000E+00  0.0000E+00   0.0000E+00  0.000E+00  0.000E+00  0.000E+00  1.06055E+03  0.000E+00  6.145E+00  1.844E-01  1.000E+00
   2    5   10     4     1    1.0000E+01  9.0525E-01   9.0947E+00  0.000E+00  0.000E+00  0.000E+00  1.07835E+03  6.210E-01  1.000E+01  2.500E-01  1.207E+00
   2    5    9     4     2    9.0947E+00  1.7835E+00   7.3113E+00  0.000E+00  0.000E+00  0.000E+00  1.07148E+03  5.670E-01  1.000E+01  5.000E-01  1.189E+00
   2    6    8     4     3    7.3113E+00  1.2257E+00   6.0855E+00  0.000E+00  0.000E+00  0.000E+00  1.06368E+03  5.021E-01  1.000E+01  3.500E-01  1.167E+00
   2    6    8     5     1    6.0855E+00  1.4716E+00   4.6139E+00  0.000E+00  0.000E+00  0.000E+00  1.05854E+03  5.396E-01  1.039E+01  4.158E-01  1.180E+00
   2    7    7     5     2    4.6139E+00  1.4897E+00   3.1242E+00  0.000E+00  0.000E+00  0.000E+00  1.05398E+03  4.817E-01  8.557E+00  4.279E-01  1.161E+00
   2    8    7     5     3    3.1242E+00  8.2855E-01   2.2957E+00  0.000E+00  0.000E+00  0.000E+00  1.04968E+03  4.253E-01  6.911E+00  2.419E-01  1.142E+00
   2    8    6     5     4    2.2957E+00  4.9455E-01   1.8011E+00  0.000E+00  0.000E+00  0.000E+00  1.04664E+03  3.856E-01  5.843E+00  1.461E-01  1.129E+00
   2    9    6     6     1    2.3444E+02  4.5898E+00   2.2985E+02  0.000E+00  0.000E+00  0.000E+00  1.04738E+03  4.650E+00  1.200E+01  6.000E-01  2.550E+00
   2   10    7     6     2    2.2985E+02  4.5567E+00   2.2529E+02  0.000E+00  0.000E+00  0.000E+00  1.04278E+03  4.595E+00  1.200E+01  6.000E-01  2.532E+00
   2   11    7     6     3    2.2529E+02  4.3815E+00   2.2091E+02  0.000E+00  0.000E+00  0.000E+00  1.03818E+03  4.540E+00  1.200E+01  6.000E-01  2.434E+00
   2   12    7     6     4    2.2091E+02  2.7451E+00   2.1817E+02  0.000E+00  0.000E+00  0.000E+00  1.03359E+03  4.497E+00  1.200E+01  6.000E-01  1.525E+00
   2   13    7     6     5    2.1817E+02  2.2521E-01   2.1794E+02  0.000E+00  0.000E+00  0.000E+00  1.03039E+03  4.478E+00  1.200E+01  2.400E-01  3.128E-01
   2   14    9     7     1    1.5000E+02  2.7361E+00   1.4726E+02  0.000E+00  0.000E+00  0.000E+00  1.03986E+03  2.284E+00  5.528E+01  5.591E+00  1.631E-01
   2   13    8     7     2    1.4726E+02  3.5919E+00   1.4367E+02  0.000E+00  0.000E+00  0.000E+00  1.03477E+03  2.267E+00  5.520E+01  6.141E+00  1.950E-01
   2   13    7     7     3    1.4367E+02  1.2518E+00   1.4242E+02  0.000E+00  0.000E+00  0.000E+00  1.02967E+03  2.254E+00  5.514E+01  5.576E+00  7.482E-02
   2   13    6     8     1    3.6036E+02  4.2333E+00   3.5636E+02  2.330E-01  0.000E+00  0.000E+00  1.02578E+03  3.905E+00  5.662E+01  5.770E+00  2.446E-01
   2   13    5     8     2    3.5636E+02  5.8180E-01   3.5601E+02  2.330E-01  0.000E+00  0.000E+00  1.01952E+03  3.896E+00  5.649E+01  5.757E+00  3.369E-02
   2   13    4     8     3    3.5601E+02 -2.5743E+00   3.5882E+02  2.330E-01  0.000E+00  0.000E+00  1.01328E+03  3.901E+00  5.656E+01  5.764E+00 -1.489E-01
   2   13    3     8     4    3.5882E+02 -3.6755E+00   3.6273E+02  2.330E-01  0.000E+00  0.000E+00  1.00704E+03  3.915E+00  5.676E+01  5.784E+00 -2.118E-01
   2   13    2     8     5    3.6273E+02 -2.2072E+00   3.6517E+02  2.330E-01  0.000E+00  0.000E+00  1.00080E+03  3.928E+00  5.695E+01  5.803E+00 -1.268E-01
   2   13    1     8     6    3.6517E+02 -1.6016E+00   3.6691E+02  1.398E-01  0.000E+00  0.000E+00  9.95811E+02  3.936E+00  5.707E+01  3.489E+00 -1.530E-01
   2    4    5     9     1    0.0000E+00  0.0000E+00   0.0000E+00  0.000E+00  0.000E+00  0.000E+00  1.06136E+03  1.361E+00  2.000E+01  0.000E+00 -1.379E+00
   2    4    5    10     1    0.0000E+00  0.0000E+00   0.0000E+00  0.000E+00  0.000E+00  0.000E+00  1.08000E+03  0.000E+00  2.000E+01  2.000E-03  1.000E+00





     0  LAKE CELLS ARE DRY.

 PERIOD     6     TIME STEP    10     TIME STEP LENGTH  1.7520E+05
 PERIOD TIME  1.7520E+06     TOTAL SIMULATION TIME  1.4892E+07


                 HYDROLOGIC BUDGET SUMMARIES FOR SIMULATED LAKES
     (ALL FLUID FLUXES ARE VOLUMES ADDED TO THE LAKE DURING PRESENT TIME STEP)
     ----------------------------------------------------------------------------------------
 LAKE    STAGE         VOLUME     VOL. CHANGE      PRECIP     EVAPORATION    SPECIFIED RUNOFF     COMPUTED RUNOFF    TOTAL RUNOFF
   1  1.076246E+03  4.159229E+06 -3.103034E+06  0.000000E+00  3.220804E+04   0.000000E+00          0.000000E+00      0.000000E+00

            GROUND WATER            SURFACE WATER        WATER          UZF INFIL.
 LAKE    INFLOW     OUTFLOW      INFLOW     OUTFLOW       USE        FROM LAKE
   1  0.0000E+00  0.0000E+00  0.0000E+00  0.0000E+00  0.0000E+00       3.0708E+06

      CONNECTED LAKE   TIME-STEP         STAGE-CHANGE          PERCENT
 LAKE    INFLUX      SURFACE AREA   TIME STEP  CUMULATIVE    DISCREPANCY
   1   0.0000E+00     4.5959E+06  -5.7202E-01  1.7457E+00       0.000
 --------------------------------------------------------------------------------



            CUMULATIVE HYDROLOGIC BUDGET SUMMARIES FOR SIMULATED LAKES
     (ALL FLUID FLUXES ARE SUMS OF VOLUMES ADDED TO THE LAKE SINCE INITIAL TIME)
     ---------------------------------------------------------------------------
 LAKE       PRECIP       EVAP     SPECIFIED RUNOFF   COMPUTED RUNOFF   TOTAL RUNOFF
   1     0.0000E+00  1.5563E+06       0.0000E+00       0.0000E+00       0.0000E+00

            GROUND WATER            SURFACE WATER       UZF INFIL.
 LAKE    INFLOW     OUTFLOW      INFLOW     OUTFLOW     FROM LAKE
   1  0.0000E+00  0.0000E+00  1.9325E+08  4.8785E+07    1.3875E+08

         WATER    CONNECTED LAKE   CHANGE       PERCENT
 LAKE     USE         INFLUX       IN VOL.    DISCREPANCY
   1   0.0000E+00   0.0000E+00   4.1592E+06     -0.000
 --------------------------------------------------------------------------------

 UBDSV3 SAVING "           GW ET" ON UNIT  61 AT TIME STEP 10, STRESS PERIOD 6
 UBDSV3 SAVING "    UZF RECHARGE" ON UNIT  61 AT TIME STEP 10, STRESS PERIOD 6
 UBDSV3 SAVING " SURFACE LEAKAGE" ON UNIT  61 AT TIME STEP 10, STRESS PERIOD 6


UNSATURATED ZONE PACKAGE VOLUMETRIC BUDGET FOR  TIME STEP    10 STRESS PERIOD    6
  ------------------------------------------------------------------------------



     CUMULATIVE VOLUMES      L**3       RATES FOR THIS TIME STEP      L**3/T
     ------------------                 ------------------------

           IN:                                      IN:
           ---                                      ---
        INFILTRATION =  1242778706.7888          INFILTRATION =         101.8287

          OUT:                                     OUT:
          ----                                     ----
              UZF ET =  1033180183.0120                UZF ET =          60.8678
        UZF RECHARGE =   565583785.3213          UZF RECHARGE =          53.5085

            IN - OUT =  -355985261.5444              IN - OUT =         -12.5475

          STORAGE:                                 STORAGE:
          --------                                 --------
      STORAGE CHANGE =  -355332129.2900        STORAGE CHANGE =         -12.5067

 PERCENT DISCREPANCY IS DIFFERENCE BETWEEN IN-OUT MINUS CHANGE IN STORAGE
 DIVIDED BY THE AVERAGE OF IN AND OUT TIMES 100

 PERCENT DISCREPANCY =          -0.01     PERCENT DISCREPANCY =          -0.04






1
  VOLUMETRIC BUDGET FOR ENTIRE MODEL AT END OF TIME STEP   10, STRESS PERIOD   6
  ------------------------------------------------------------------------------

     CUMULATIVE VOLUMES      L**3       RATES FOR THIS TIME STEP      L**3/T
     ------------------                 ------------------------

           IN:                                      IN:
           ---                                      ---
             STORAGE     =    89858400.0000               STORAGE     =          13.5432
       CONSTANT HEAD     =           0.0000         CONSTANT HEAD     =           0.0000
               WELLS     =           0.0000                 WELLS     =           0.0000
     HEAD DEP BOUNDS     =     3195044.0000       HEAD DEP BOUNDS     =           0.2137
      STREAM LEAKAGE     =   993095872.0000        STREAM LEAKAGE     =         103.2533
       LAKE  SEEPAGE     =           0.0000         LAKE  SEEPAGE     =           0.0000
        UZF RECHARGE     =   565583744.0000          UZF RECHARGE     =          53.5085
               GW ET     =           0.0000                 GW ET     =           0.0000
     SURFACE LEAKAGE     =           0.0000       SURFACE LEAKAGE     =           0.0000

                TOTAL IN =  1651733120.0000                  TOTAL IN =         170.5188

          OUT:                                     OUT:
          ----                                     ----
             STORAGE     =   891995264.0000               STORAGE     =         144.4440
       CONSTANT HEAD     =           0.0000         CONSTANT HEAD     =           0.0000
               WELLS     =   236520000.0000                 WELLS     =           0.0000
     HEAD DEP BOUNDS     =     4411883.5000       HEAD DEP BOUNDS     =           0.3143
      STREAM LEAKAGE     =   284452672.0000        STREAM LEAKAGE     =          10.0586
       LAKE  SEEPAGE     =           0.0000         LAKE  SEEPAGE     =           0.0000
        UZF RECHARGE     =           0.0000          UZF RECHARGE     =           0.0000
               GW ET     =   190495536.0000                 GW ET     =          14.5968
     SURFACE LEAKAGE     =    43835872.0000       SURFACE LEAKAGE     =           1.1061

               TOTAL OUT =  1651711232.0000                 TOTAL OUT =         170.5197

                IN - OUT =       21888.0000                  IN - OUT =      -9.9182E-04

     PERCENT DISCREPANCY =           0.00         PERCENT DISCREPANCY =          -0.00






         TIME SUMMARY AT END OF TIME STEP   10 IN STRESS PERIOD    6
                    SECONDS     MINUTES      HOURS       DAYS        YEARS
                    -----------------------------------------------------------
   TIME STEP LENGTH 1.75200E+05  2920.0      48.667      2.0278     5.55175E-03
 STRESS PERIOD TIME 1.75200E+06  29200.      486.67      20.278     5.55175E-02
         TOTAL TIME 1.48920E+07 2.48200E+05  4136.7      172.36     0.47190    
1
 
 SOLVING FOR HEAD 
                                                   Max.-Head-Change                         Max.-Flux-Residual
  Residual-Control   Outer-Iter.   Inner-Iter.     Column Row Layer    Maximum-Head-Change  Column Row Layer    Maximum-Flux-Residual          L2-NORM 
          0                 1           2             5    4     2      -0.4697733671E+00       5    4    2        -0.1461447624E+02      0.3086561456E+02
          0                 2           2             5    4     2      -0.6862940788E-01       5    4    2        -0.2004629776E+01      0.2992015954E+01
          0                 3           2             5    4     2      -0.1025379188E-01       5    4    2        -0.3038824329E+00      0.3243412475E+00
          0                 4           2             5    4     2      -0.1525602981E-02       5    4    2        -0.4514037778E-01      0.4522983493E-01
          0                 5           1             5    4     2      -0.2271206977E-03       5    4    2        -0.6720464707E-02      0.6725568093E-02

    ------------------------------------------------
       NWT REQUIRED            5 OUTER ITERATIONS 
       AND A TOTAL OF          9 INNER ITERATIONS.
    ------------------------------------------------

 NO OUTPUT CONTROL FOR STRESS PERIOD    6   TIME STEP   11
 
 SOLVING FOR HEAD 
                                                   Max.-Head-Change                         Max.-Flux-Residual
  Residual-Control   Outer-Iter.   Inner-Iter.     Column Row Layer    Maximum-Head-Change  Column Row Layer    Maximum-Flux-Residual          L2-NORM 
          0                 1           2             5    4     2      -0.5104330342E+00       5    4    2        -0.1571988715E+02      0.2928839358E+02
          0                 2           2             5    4     2      -0.6268641118E-01       5    4    2        -0.1831878523E+01      0.2711921306E+01
          0                 3           2             5    4     2      -0.7867775917E-02       5    4    2        -0.2330481583E+00      0.2546596324E+00
          0                 4           1             5    4     2      -0.9829831390E-03       5    4    2        -0.2906214405E-01      0.2915966522E-01

    ------------------------------------------------
       NWT REQUIRED            4 OUTER ITERATIONS 
       AND A TOTAL OF          7 INNER ITERATIONS.
    ------------------------------------------------

 NO OUTPUT CONTROL FOR STRESS PERIOD    6   TIME STEP   12
 
 SOLVING FOR HEAD 
                                                   Max.-Head-Change                         Max.-Flux-Residual
  Residual-Control   Outer-Iter.   Inner-Iter.     Column Row Layer    Maximum-Head-Change  Column Row Layer    Maximum-Flux-Residual          L2-NORM 
          0                 1           2             5    4     2      -0.4942168161E+00       5    4    2        -0.1514238435E+02      0.2738829860E+02
          0                 2           2             5    4     2      -0.4945905046E-01       5    4    2        -0.1443549880E+01      0.2308468494E+01
          0                 3           2             5    4     2      -0.5240364048E-02       5    4    2        -0.1551557592E+00      0.1814047315E+00
          0                 4           1             5    4     2      -0.5520671279E-03       5    4    2        -0.1630807524E-01      0.1643601003E-01

    ------------------------------------------------
       NWT REQUIRED            4 OUTER ITERATIONS 
       AND A TOTAL OF          7 INNER ITERATIONS.
    ------------------------------------------------

 NO OUTPUT CONTROL FOR STRESS PERIOD    6   TIME STEP   13
 
 SOLVING FOR HEAD 
                                                   Max.-Head-Change                         Max.-Flux-Residual
  Residual-Control   Outer-Iter.   Inner-Iter.     Column Row Layer    Maximum-Head-Change  Column Row Layer    Maximum-Flux-Residual          L2-NORM 
          0                 1           2             5    4     2      -0.5244180622E+00       5    4    2        -0.1596523633E+02      0.3422326611E+02
          0                 2           2             4   13     2       0.9488927794E-01       4   13    2         0.2203097976E+01      0.3750424834E+01
          0                 3           2             4   13     2      -0.1229937385E-01       4   13    2        -0.3239182027E+00      0.3850201054E+00
          0                 4           1             4   13     2       0.5722963337E-03       4   13    2         0.1557876568E-01      0.2175950153E-01

    ------------------------------------------------
       NWT REQUIRED            4 OUTER ITERATIONS 
       AND A TOTAL OF          7 INNER ITERATIONS.
    ------------------------------------------------

 NO OUTPUT CONTROL FOR STRESS PERIOD    6   TIME STEP   14
 
 SOLVING FOR HEAD 
                                                   Max.-Head-Change                         Max.-Flux-Residual
  Residual-Control   Outer-Iter.   Inner-Iter.     Column Row Layer    Maximum-Head-Change  Column Row Layer    Maximum-Flux-Residual          L2-NORM 
          0                 1           2             3    3     2       0.5487907888E+00       3    3    2         0.1473963987E+02      0.3760857382E+02
          0                 2           2             5   13     2       0.1051217450E+00       5   13    2         0.2300692763E+01      0.4111291344E+01
          0                 3           2             5   13     2      -0.1400925807E-01       5   13    2        -0.3465811806E+00      0.3983889557E+00
          0                 4           1             5   13     2       0.6829665794E-03       5   13    2         0.1741219069E-01      0.2032625240E-01

    ------------------------------------------------
       NWT REQUIRED            4 OUTER ITERATIONS 
       AND A TOTAL OF          7 INNER ITERATIONS.
    ------------------------------------------------

 OUTPUT CONTROL FOR STRESS PERIOD    6   TIME STEP   15
    PRINT BUDGET
    PRINT HEAD FOR ALL LAYERS
    SAVE HEAD FOR ALL LAYERS
    SAVE BUDGET

  HEAD DEP BOUNDS   PERIOD    6   STEP    15
 BOUNDARY      1   LAYER   2   ROW    13   COL     1   RATE   -0.331222    
 BOUNDARY      2   LAYER   2   ROW    14   COL     9   RATE    0.214117    



 STREAM LISTING     PERIOD      6   STEP       15

 LAYER ROW COL. STREAM  RCH.  FLOW INTO     FLOW TO   FLOW OUT OF   OVRLND.     DIRECT     STREAM       STREAM     STREAM     STREAM   STREAMBED  STREAMBED
                SEG.NO.  NO.  STRM. RCH.    AQUIFER    STRM. RCH.    RUNOFF     PRECIP       ET          HEAD       DEPTH      WIDTH   CONDCTNC.   GRADIENT

   2    1    1     1     1    9.5800E+02  8.0582E+00   9.4994E+02  0.000E+00  0.000E+00  0.000E+00  1.09722E+03  4.171E+00  5.138E+01  2.312E+00  1.162E+00
   2    2    2     1     2    9.4994E+02  2.0176E+01   9.2977E+02  0.000E+00  0.000E+00  0.000E+00  1.09221E+03  4.148E+00  5.109E+01  3.576E+00  1.880E+00
   2    3    3     1     3    9.2977E+02  2.1622E+01   9.0814E+02  0.000E+00  0.000E+00  0.000E+00  1.08653E+03  4.113E+00  5.066E+01  3.040E+00  2.371E+00
   2    3    4     1     4    9.0814E+02  1.9733E+01   8.8841E+02  0.000E+00  0.000E+00  0.000E+00  1.08149E+03  4.078E+00  5.023E+01  2.788E+00  2.359E+00
   2    4    5     2     1    8.7841E+02  0.0000E+00   8.7841E+02  0.000E+00  0.000E+00  0.000E+00  1.08215E+03  1.022E+01  1.200E+01  0.000E+00  4.406E+00
   2    5    6     2     2    8.7841E+02  7.9142E+00   8.7050E+02  0.000E+00  0.000E+00  0.000E+00  1.07670E+03  1.019E+01  1.200E+01  6.000E-01  4.397E+00
   2    6    6     2     3    8.7050E+02  7.8810E+00   8.6262E+02  0.000E+00  0.000E+00  0.000E+00  1.07193E+03  1.013E+01  1.200E+01  6.000E-01  4.378E+00
   2    7    6     2     4    8.6262E+02  7.8478E+00   8.5477E+02  0.000E+00  0.000E+00  0.000E+00  1.06716E+03  1.008E+01  1.200E+01  6.000E-01  4.360E+00
   2    8    6     2     5    8.5477E+02  7.8147E+00   8.4695E+02  0.000E+00  0.000E+00  0.000E+00  1.06238E+03  1.002E+01  1.200E+01  6.000E-01  4.341E+00
   2    3    5     3     1    1.0000E+01  2.8252E+00   7.1748E+00  0.000E+00  0.000E+00  0.000E+00  1.07555E+03  1.909E+00  9.636E+00  7.227E-01  1.955E+00
   2    3    6     3     2    7.1748E+00  2.4905E+00   4.6843E+00  0.000E+00  0.000E+00  0.000E+00  1.07264E+03  1.727E+00  8.909E+00  6.682E-01  1.864E+00
   2    3    7     3     3    4.6843E+00  1.9718E+00   2.7125E+00  0.000E+00  0.000E+00  0.000E+00  1.06987E+03  1.555E+00  8.218E+00  5.547E-01  1.777E+00
   2    4    8     3     4    2.7125E+00  2.2567E+00   4.5579E-01  0.000E+00  0.000E+00  0.000E+00  1.06682E+03  1.364E+00  7.455E+00  6.709E-01  1.682E+00
   2    5    8     3     5    4.5579E-01  4.5579E-01   0.0000E+00  0.000E+00  0.000E+00  0.000E+00  1.06362E+03  0.000E+00  6.655E+00  4.991E-01  1.582E+00
   2    6    8     3     6    0.0000E+00  0.0000E+00   0.0000E+00  0.000E+00  0.000E+00  0.000E+00  1.06055E+03  0.000E+00  6.145E+00  1.844E-01  1.000E+00
   2    5   10     4     1    1.0000E+01  9.0525E-01   9.0947E+00  0.000E+00  0.000E+00  0.000E+00  1.07835E+03  6.210E-01  1.000E+01  2.500E-01  1.207E+00
   2    5    9     4     2    9.0947E+00  1.7835E+00   7.3113E+00  0.000E+00  0.000E+00  0.000E+00  1.07148E+03  5.670E-01  1.000E+01  5.000E-01  1.189E+00
   2    6    8     4     3    7.3113E+00  1.2257E+00   6.0855E+00  0.000E+00  0.000E+00  0.000E+00  1.06368E+03  5.021E-01  1.000E+01  3.500E-01  1.167E+00
   2    6    8     5     1    6.0855E+00  1.4716E+00   4.6139E+00  0.000E+00  0.000E+00  0.000E+00  1.05854E+03  5.396E-01  1.039E+01  4.158E-01  1.180E+00
   2    7    7     5     2    4.6139E+00  1.4897E+00   3.1242E+00  0.000E+00  0.000E+00  0.000E+00  1.05398E+03  4.817E-01  8.557E+00  4.279E-01  1.161E+00
   2    8    7     5     3    3.1242E+00  8.2855E-01   2.2957E+00  0.000E+00  0.000E+00  0.000E+00  1.04968E+03  4.253E-01  6.911E+00  2.419E-01  1.142E+00
   2    8    6     5     4    2.2957E+00  4.9455E-01   1.8011E+00  0.000E+00  0.000E+00  0.000E+00  1.04664E+03  3.856E-01  5.843E+00  1.461E-01  1.129E+00
   2    9    6     6     1    8.4875E+02  7.8560E+00   8.4090E+02  0.000E+00  0.000E+00  0.000E+00  1.05282E+03  1.009E+01  1.200E+01  6.000E-01  4.364E+00
   2   10    7     6     2    8.4090E+02  7.8222E+00   8.3308E+02  0.000E+00  0.000E+00  0.000E+00  1.04822E+03  1.004E+01  1.200E+01  6.000E-01  4.346E+00
   2   11    7     6     3    8.3308E+02  7.3041E+00   8.2577E+02  0.000E+00  0.000E+00  0.000E+00  1.04362E+03  9.982E+00  1.200E+01  6.000E-01  4.058E+00
   2   12    7     6     4    8.2577E+02  5.7255E+00   8.2005E+02  0.000E+00  0.000E+00  0.000E+00  1.03903E+03  9.935E+00  1.200E+01  6.000E-01  3.181E+00
   2   13    7     6     5    8.2005E+02  1.4865E+00   8.1856E+02  0.000E+00  0.000E+00  0.000E+00  1.03582E+03  9.909E+00  1.200E+01  2.400E-01  2.065E+00
   2   14    9     7     1    1.5000E+02  2.7911E+00   1.4721E+02  0.000E+00  0.000E+00  0.000E+00  1.03986E+03  2.284E+00  5.528E+01  5.591E+00  1.664E-01
   2   13    8     7     2    1.4721E+02  3.5866E+00   1.4362E+02  0.000E+00  0.000E+00  0.000E+00  1.03477E+03  2.267E+00  5.520E+01  6.141E+00  1.947E-01
   2   13    7     7     3    1.4362E+02  2.8476E-01   1.4334E+02  0.000E+00  0.000E+00  0.000E+00  1.02968E+03  2.256E+00  5.515E+01  5.578E+00  1.702E-02
   2   13    6     8     1    9.6190E+02  9.7662E+00   9.5665E+02  4.517E+00  0.000E+00  0.000E+00  1.02743E+03  5.551E+00  6.455E+01  6.635E+00  4.906E-01
   2   13    5     8     2    9.5665E+02  6.4021E+00   9.5476E+02  4.517E+00  0.000E+00  0.000E+00  1.02117E+03  5.543E+00  6.452E+01  6.632E+00  3.218E-01
   2   13    4     8     3    9.5476E+02  3.9578E+00   9.5532E+02  4.517E+00  0.000E+00  0.000E+00  1.01492E+03  5.542E+00  6.451E+01  6.631E+00  1.990E-01
   2   13    3     8     4    9.5532E+02  2.9042E+00   9.5694E+02  4.517E+00  0.000E+00  0.000E+00  1.00867E+03  5.544E+00  6.452E+01  6.632E+00  1.460E-01
   2   13    2     8     5    9.5694E+02  3.6703E+00   9.5778E+02  4.517E+00  0.000E+00  0.000E+00  1.00242E+03  5.547E+00  6.453E+01  6.633E+00  1.844E-01
   2   13    1     8     6    9.5778E+02  2.8116E+00   9.5768E+02  2.710E+00  0.000E+00  0.000E+00  9.97423E+02  5.548E+00  6.454E+01  3.980E+00  2.355E-01
   2    4    5     9     1    0.0000E+00  0.0000E+00   0.0000E+00  0.000E+00  0.000E+00  0.000E+00  1.06068E+03  6.775E-01  2.000E+01  0.000E+00 -6.865E-01
   2    4    5    10     1    0.0000E+00  0.0000E+00   0.0000E+00  0.000E+00  0.000E+00  0.000E+00  1.08000E+03  0.000E+00  2.000E+01  2.000E-03  1.000E+00





     0  LAKE CELLS ARE DRY.

 PERIOD     6     TIME STEP    15     TIME STEP LENGTH  1.7520E+05
 PERIOD TIME  2.6280E+06     TOTAL SIMULATION TIME  1.5768E+07


                 HYDROLOGIC BUDGET SUMMARIES FOR SIMULATED LAKES
     (ALL FLUID FLUXES ARE VOLUMES ADDED TO THE LAKE DURING PRESENT TIME STEP)
     ----------------------------------------------------------------------------------------
 LAKE    STAGE         VOLUME     VOL. CHANGE      PRECIP     EVAPORATION    SPECIFIED RUNOFF     COMPUTED RUNOFF    TOTAL RUNOFF
   1  1.074569E+03  1.240722E+04 -2.714978E+04  0.000000E+00  1.269975E+03   0.000000E+00          0.000000E+00      0.000000E+00

            GROUND WATER            SURFACE WATER        WATER          UZF INFIL.
 LAKE    INFLOW     OUTFLOW      INFLOW     OUTFLOW       USE        FROM LAKE
   1  0.0000E+00  0.0000E+00  0.0000E+00  0.0000E+00  0.0000E+00       2.5880E+04

      CONNECTED LAKE   TIME-STEP         STAGE-CHANGE          PERCENT
 LAKE    INFLUX      SURFACE AREA   TIME STEP  CUMULATIVE    DISCREPANCY
   1   0.0000E+00     1.8122E+05  -7.3698E-02  6.8758E-02      -0.003
 --------------------------------------------------------------------------------



            CUMULATIVE HYDROLOGIC BUDGET SUMMARIES FOR SIMULATED LAKES
     (ALL FLUID FLUXES ARE SUMS OF VOLUMES ADDED TO THE LAKE SINCE INITIAL TIME)
     ---------------------------------------------------------------------------
 LAKE       PRECIP       EVAP     SPECIFIED RUNOFF   COMPUTED RUNOFF   TOTAL RUNOFF
   1     0.0000E+00  1.6008E+06       0.0000E+00       0.0000E+00       0.0000E+00

            GROUND WATER            SURFACE WATER       UZF INFIL.
 LAKE    INFLOW     OUTFLOW      INFLOW     OUTFLOW     FROM LAKE
   1  0.0000E+00  0.0000E+00  1.9325E+08  4.8785E+07    1.4285E+08

         WATER    CONNECTED LAKE   CHANGE       PERCENT
 LAKE     USE         INFLUX       IN VOL.    DISCREPANCY
   1   0.0000E+00   0.0000E+00   1.2407E+04     -0.000
 --------------------------------------------------------------------------------

 UBDSV3 SAVING "           GW ET" ON UNIT  61 AT TIME STEP 15, STRESS PERIOD 6
 UBDSV3 SAVING "    UZF RECHARGE" ON UNIT  61 AT TIME STEP 15, STRESS PERIOD 6
 UBDSV3 SAVING " SURFACE LEAKAGE" ON UNIT  61 AT TIME STEP 15, STRESS PERIOD 6


UNSATURATED ZONE PACKAGE VOLUMETRIC BUDGET FOR  TIME STEP    15 STRESS PERIOD    6
  ------------------------------------------------------------------------------



     CUMULATIVE VOLUMES      L**3       RATES FOR THIS TIME STEP      L**3/T
     ------------------                 ------------------------

           IN:                                      IN:
           ---                                      ---
        INFILTRATION =  1320289246.2849          INFILTRATION =          83.4667

          OUT:                                     OUT:
          ----                                     ----
              UZF ET =  1086328805.2168                UZF ET =          59.4236
        UZF RECHARGE =   599261377.8316          UZF RECHARGE =          31.9693

            IN - OUT =  -365300936.7635              IN - OUT =          -7.9262

          STORAGE:                                 STORAGE:
          --------                                 --------
      STORAGE CHANGE =  -364607084.6896        STORAGE CHANGE =          -7.8836

 PERCENT DISCREPANCY IS DIFFERENCE BETWEEN IN-OUT MINUS CHANGE IN STORAGE
 DIVIDED BY THE AVERAGE OF IN AND OUT TIMES 100

 PERCENT DISCREPANCY =          -0.01     PERCENT DISCREPANCY =          -0.05






1
              HEAD IN LAYER 1 AT END OF TIME STEP 15 IN STRESS PERIOD 6
  ---------------------------------------------------------------------------

           1       2       3       4       5       6       7       8       9      10
 ...................................................................................
   1  6999.00 6999.00 6999.00 6999.00 6999.00 6999.00 6999.00 6999.00 6999.00 6999.00
   2  6999.00 6999.00 6999.00 6999.00 6999.00 6999.00 6999.00 6999.00 6999.00 6999.00
   3  6999.00 6999.00 6999.00 6999.00 6999.00 6999.00 6999.00 6999.00 6999.00 6999.00
   4  6999.00 6999.00 6999.00 6999.00 1074.57 6999.00 6999.00 6999.00 6999.00 6999.00
   5  6999.00 6999.00 6999.00 6999.00 6999.00 6999.00 6999.00 6999.00 6999.00 6999.00
   6  6999.00 6999.00 6999.00 6999.00 6999.00 6999.00 6999.00 6999.00 6999.00 6999.00
   7  6999.00 6999.00 6999.00 6999.00 6999.00 6999.00 6999.00 6999.00 6999.00 6999.00
   8  6999.00 6999.00 6999.00 6999.00 6999.00 6999.00 6999.00 6999.00 6999.00 6999.00
   9  6999.00 6999.00 6999.00 6999.00 6999.00 6999.00 6999.00 6999.00 6999.00 6999.00
  10  6999.00 6999.00 6999.00 6999.00 6999.00 6999.00 6999.00 6999.00 6999.00 6999.00
  11  6999.00 6999.00 6999.00 6999.00 6999.00 6999.00 6999.00 6999.00 6999.00 6999.00
  12  6999.00 6999.00 6999.00 6999.00 6999.00 6999.00 6999.00 6999.00 6999.00 6999.00
  13  6999.00 6999.00 6999.00 6999.00 6999.00 6999.00 6999.00 6999.00 6999.00 6999.00
  14  6999.00 6999.00 6999.00 6999.00 6999.00 6999.00 6999.00 6999.00 6999.00 6999.00
  15  6999.00 6999.00 6999.00 6999.00 6999.00 6999.00 6999.00 6999.00 6999.00 6999.00
1
              HEAD IN LAYER 2 AT END OF TIME STEP 15 IN STRESS PERIOD 6
  ---------------------------------------------------------------------------

           1       2       3       4       5       6       7       8       9      10
 ...................................................................................
   1  1093.73 1086.72 6999.00 6999.00 6999.00 6999.00 6999.00 6999.00 6999.00 6999.00
   2  1086.54 1086.56 1075.71 6999.00 6999.00 1067.26 1066.88 1064.45 6999.00 6999.00
   3  6999.00 1072.06 1072.31 1068.65 1067.64 1065.95 1065.18 1063.36 6999.00 6999.00
   4  1061.31 1061.60 1061.28 1060.49 1062.74 1058.12 1056.26 1059.40 1057.98 6999.00
   5  1057.37 1054.25 1052.47 1052.16 1053.20 1052.97 1051.01 1051.99 1055.25 1057.51
   6  1053.22 1049.03 1046.81 1046.00 1046.72 1048.61 1048.19 1049.75 1052.21 1057.15
   7  1050.24 1044.21 1041.88 1041.01 1041.93 1044.53 1044.95 1046.60 1048.99 6999.00
   8  6999.00 1038.90 1037.30 1036.58 1037.57 1040.34 1040.69 1043.00 1045.06 6999.00
   9  6999.00 1033.18 1032.36 1032.07 1033.15 1035.82 1036.26 1037.35 1040.28 6999.00
  10  6999.00 1027.33 1027.27 1027.77 1029.09 1031.25 1033.73 1033.58 1036.48 1039.76
  11  6999.00 1019.66 1020.65 1023.46 1025.58 1028.18 1031.45 1031.55 1034.90 6999.00
  12  1003.15 1009.78 1014.00 1018.48 1022.21 1025.96 1029.48 1031.07 1034.63 6999.00
  13   996.72 1001.87 1008.23 1014.32 1020.20 1025.95 1029.62 1034.18 1036.74 6999.00
  14  6999.00 1006.88 1010.94 1015.84 1020.94 1025.94 1030.52 1035.24 1039.37 6999.00
  15  6999.00 6999.00 1017.91 1020.78 1024.52 1027.71 6999.00 6999.00 6999.00 6999.00

 HEAD WILL BE SAVED ON UNIT   58 AT END OF TIME STEP   15, STRESS PERIOD    6
1
  VOLUMETRIC BUDGET FOR ENTIRE MODEL AT END OF TIME STEP   15, STRESS PERIOD   6
  ------------------------------------------------------------------------------

     CUMULATIVE VOLUMES      L**3       RATES FOR THIS TIME STEP      L**3/T
     ------------------                 ------------------------

           IN:                                      IN:
           ---                                      ---
             STORAGE     =   103874032.0000               STORAGE     =          14.5052
       CONSTANT HEAD     =           0.0000         CONSTANT HEAD     =           0.0000
               WELLS     =           0.0000                 WELLS     =           0.0000
     HEAD DEP BOUNDS     =     3382470.7500       HEAD DEP BOUNDS     =           0.2141
      STREAM LEAKAGE     =  1120975104.0000        STREAM LEAKAGE     =         185.6139
       LAKE  SEEPAGE     =           0.0000         LAKE  SEEPAGE     =           0.0000
        UZF RECHARGE     =   599261312.0000          UZF RECHARGE     =          31.9693
               GW ET     =           0.0000                 GW ET     =           0.0000
     SURFACE LEAKAGE     =           0.0000       SURFACE LEAKAGE     =           0.0000

                TOTAL IN =  1827492864.0000                  TOTAL IN =         232.3025

          OUT:                                     OUT:
          ----                                     ----
             STORAGE     =  1043605632.0000               STORAGE     =         191.6600
       CONSTANT HEAD     =           0.0000         CONSTANT HEAD     =           0.0000
               WELLS     =   236520000.0000                 WELLS     =           0.0000
     HEAD DEP BOUNDS     =     4695550.5000       HEAD DEP BOUNDS     =           0.3312
      STREAM LEAKAGE     =   285702592.0000        STREAM LEAKAGE     =           0.0000
       LAKE  SEEPAGE     =           0.0000         LAKE  SEEPAGE     =           0.0000
        UZF RECHARGE     =           0.0000          UZF RECHARGE     =           0.0000
               GW ET     =   204100672.0000                 GW ET     =          16.1909
     SURFACE LEAKAGE     =    52848528.0000       SURFACE LEAKAGE     =          24.1217

               TOTAL OUT =  1827473024.0000                 TOTAL OUT =         232.3039

                IN - OUT =       19840.0000                  IN - OUT =      -1.3275E-03

     PERCENT DISCREPANCY =           0.00         PERCENT DISCREPANCY =          -0.00






         TIME SUMMARY AT END OF TIME STEP   15 IN STRESS PERIOD    6
                    SECONDS     MINUTES      HOURS       DAYS        YEARS
                    -----------------------------------------------------------
   TIME STEP LENGTH 1.75200E+05  2920.0      48.667      2.0278     5.55175E-03
 STRESS PERIOD TIME 2.62800E+06  43800.      730.00      30.417     8.32763E-02
         TOTAL TIME 1.57680E+07 2.62800E+05  4380.0      182.50     0.49966    
1
1
                            STRESS PERIOD NO.    7, LENGTH =   2628000.    
                            -----------------------------------------------

                              NUMBER OF TIME STEPS =    15

                               MULTIPLIER FOR DELT =     1.000

                            INITIAL TIME STEP SIZE =   175200.0    

 WELL NO.  LAYER   ROW   COL   STRESS RATE         
 --------------------------------------------------
      1      2      6      4      -2.000    
      2      2      6      5      -2.000    
      3      2      7      4      -2.000    
      4      2      7      5      -2.000    
      5      2      8      4      -2.000    
      6      2      8      5      -2.000    
      7      2      9      4      -2.000    
      8      2      9      5      -2.000    
      9      2     10      4      -2.000    
     10      2     10      5      -2.000    

     10 WELLS

 REUSING NON-PARAMETER GHB CELLS FROM LAST STRESS PERIOD

      2 GHB CELLS

 REUSING STREAM SEGMENT DATA FROM LAST STRESS PERIOD



            AREAL INFILTRATION RATE
 READING ON UNIT   19 WITH FORMAT: (10F4.0)            

            1           2           3           4           5           6           7           8           9          10
 ........................................................................................................................
   1   3.0000E-09  6.0000E-09   0.000       0.000       0.000       0.000       0.000       0.000       0.000       0.000    
   2   6.0000E-09  3.0000E-09  6.0000E-09   0.000       0.000      2.4000E-08  2.4000E-08  1.5000E-08   0.000       0.000    
   3    0.000      1.5000E-08  3.0000E-09  3.0000E-09  2.4000E-08  2.4000E-08  1.5000E-08  1.5000E-08   0.000       0.000    
   4   2.4000E-08  1.5000E-08  3.0000E-09  3.0000E-09  3.0000E-09  3.0000E-09  3.0000E-09  3.0000E-09  6.0000E-09   0.000    
   5   2.4000E-08  1.5000E-08  3.0000E-09  3.0000E-09  3.0000E-09  3.0000E-09  3.0000E-09  3.0000E-09  3.0000E-09  3.0000E-09
   6   2.4000E-08  1.5000E-08  1.5000E-08  6.0000E-09  6.0000E-09  3.0000E-09  3.0000E-09  3.0000E-09  3.0000E-09  1.5000E-08
   7   2.4000E-08  1.5000E-08  1.5000E-08  6.0000E-09  6.0000E-09  3.0000E-09  3.0000E-09  6.0000E-09  6.0000E-09   0.000    
   8    0.000      1.5000E-08  1.5000E-08  6.0000E-09  6.0000E-09  3.0000E-09  3.0000E-09  6.0000E-09  1.5000E-08   0.000    
   9    0.000      1.5000E-08  1.5000E-08  6.0000E-09  6.0000E-09  3.0000E-09  3.0000E-09  6.0000E-09  1.5000E-08   0.000    
  10    0.000      1.5000E-08  1.5000E-08  6.0000E-09  6.0000E-09  3.0000E-09  3.0000E-09  6.0000E-09  1.5000E-08  2.4000E-08
  11    0.000      3.0000E-09  3.0000E-09  3.0000E-09  3.0000E-09  3.0000E-09  3.0000E-09  6.0000E-09  1.5000E-08   0.000    
  12   3.0000E-09  3.0000E-09  3.0000E-09  3.0000E-09  3.0000E-09  3.0000E-09  3.0000E-09  3.0000E-09  6.0000E-09   0.000    
  13   3.0000E-09  3.0000E-09  6.0000E-09  6.0000E-09  6.0000E-09  6.0000E-09  6.0000E-09  3.0000E-09  3.0000E-09   0.000    
  14    0.000      6.0000E-09  1.5000E-08  1.5000E-08  1.5000E-08  1.5000E-08  1.5000E-08  6.0000E-09  3.0000E-09   0.000    
  15    0.000       0.000      2.4000E-08  2.4000E-08  2.4000E-08  2.4000E-08   0.000       0.000       0.000       0.000    

USING ET RATE FROM PREVIOUS STRESS PERIOD. CURRENT PERIOD IS:       7

 USING ET EXTINCTION DEPTH FROM PREVIOUS STRESS PERIOD. CURRENT PERIOD IS:       7

 USING EXTINCTION WATER CONTENT FROM PREVIOUS STRESS PERIOD. CURRENT PERIOD IS:       7




 If any subsequent steady-state stress periods, min. and max. stages for each lake will be read in Record 9a.




 REUSING LAKE CONFIGURATION DATA FROM LAST STRESS PERIOD


 LAKE       PRECIP     EVAP     RUNOFF   WITHDRAW   BOTTOM     AREA
----------------------------------------------------------------------
   1     0.000E+00 4.000E-08 0.000E+00  0.000E+00 1.074E+03 2.500E+07




         C               INTERFACE CONDUCTANCES BETWEEN LAKE AND AQUIFER CELLS
   L     O          (IF TYPE = 6, CONDUCTANCE (L^2/T) IS BETWEEN AQUIFER CELL AND OVERLYING LAKE CELL.)
   A     L  L  T    (IF TYPE = 1 TO 4, CONDUCTANCES ARE PER UNIT SATURATED THICKNESS (L/T).)
   Y  R  U  A  Y
   E  O  M  K  P                        LAKEBED      C O N D U C T A N C E S
   R  W  N  E  E     DELTA Y   DELTA X  LEAKANCE   LAKEBED   AQUIFER  COMBINED
 _______________________________________________________________________________
   1  4  4  1  2    5.00E+03  5.00E+03  5.00E-02  2.50E+02  6.00E-03  6.00E-03
   1  3  5  1  3    5.00E+03  5.00E+03  5.00E-02  2.50E+02  1.20E-03  1.20E-03
   2  4  5  1  6    5.00E+03  5.00E+03  5.00E-02  1.25E+06  9.42E+00  9.42E+00
   1  5  5  1  4    5.00E+03  5.00E+03  5.00E-02  2.50E+02  6.00E-03  6.00E-03
   1  4  6  1  1    5.00E+03  5.00E+03  5.00E-02  2.50E+02  6.00E-03  6.00E-03
 
      DEAD POOL STORAGE FOR LAKE    1 BELOW SEGMENT   10 IS EQUAL TO     0.1200000000E+09
 
      LAKE     INFLOWING STREAM SEGMENT
         1                  9

 MAXIMUM NUMBER OF STREAMS INFLOWING TO A LAKE IS    1

      LAKE     OUTFLOWING STREAM SEGMENT
         1                 10

 MAXIMUM NUMBER OF STREAMS OUTFLOWING FROM A LAKE IS    1

 
 SOLVING FOR HEAD 
                                                   Max.-Head-Change                         Max.-Flux-Residual
  Residual-Control   Outer-Iter.   Inner-Iter.     Column Row Layer    Maximum-Head-Change  Column Row Layer    Maximum-Flux-Residual          L2-NORM 
          0                 1           2             3    3     2       0.5288038774E+00       3    3    2         0.1425535800E+02      0.3313763325E+02
          0                 2           2             3    3     2      -0.4974551481E-01       3    3    2        -0.1401927410E+01      0.2740435657E+01
          0                 3           2             3    3     2       0.2781430381E-02       3    3    2         0.8176505094E-01      0.1558352209E+00
          0                 4           1             5    4     2      -0.1218380219E-03       5    4    2        -0.3589975405E-02      0.4765160124E-02

    ------------------------------------------------
       NWT REQUIRED            4 OUTER ITERATIONS 
       AND A TOTAL OF          7 INNER ITERATIONS.
    ------------------------------------------------

 NO OUTPUT CONTROL FOR STRESS PERIOD    7   TIME STEP    1
 
 SOLVING FOR HEAD 
                                                   Max.-Head-Change                         Max.-Flux-Residual
  Residual-Control   Outer-Iter.   Inner-Iter.     Column Row Layer    Maximum-Head-Change  Column Row Layer    Maximum-Flux-Residual          L2-NORM 
          0                 1           2             3    3     2       0.4770396226E+00       3    3    2         0.1283595378E+02      0.2898106919E+02
          0                 2           2             3    3     2      -0.4491240067E-01       3    3    2        -0.1264859401E+01      0.2333735059E+01
          0                 3           2             3    3     2       0.2519294745E-02       3    3    2         0.7406461925E-01      0.1291566211E+00
          0                 4           1             3    3     2      -0.4899748629E-04       3    3    2        -0.1497205658E-02      0.2917070850E-02

    ------------------------------------------------
       NWT REQUIRED            4 OUTER ITERATIONS 
       AND A TOTAL OF          7 INNER ITERATIONS.
    ------------------------------------------------

 NO OUTPUT CONTROL FOR STRESS PERIOD    7   TIME STEP    2
 
 SOLVING FOR HEAD 
                                                   Max.-Head-Change                         Max.-Flux-Residual
  Residual-Control   Outer-Iter.   Inner-Iter.     Column Row Layer    Maximum-Head-Change  Column Row Layer    Maximum-Flux-Residual          L2-NORM 
          0                 1           2             5   13     2      -0.3998885424E+00       5    4    2        -0.1126072177E+02      0.2364682382E+02
          0                 2           2             5   13     2       0.7969105624E-01       5   13    2         0.3402336236E+01      0.4009886801E+01
          0                 3           2             5   13     2      -0.5604091176E-02       5   13    2        -0.2585470972E+00      0.2868383806E+00
          0                 4           1             2   13     2      -0.1084969571E-03       5   13    2         0.4382830595E-02      0.6924206330E-02

    ------------------------------------------------
       NWT REQUIRED            4 OUTER ITERATIONS 
       AND A TOTAL OF          7 INNER ITERATIONS.
    ------------------------------------------------

 NO OUTPUT CONTROL FOR STRESS PERIOD    7   TIME STEP    3
 
 SOLVING FOR HEAD 
                                                   Max.-Head-Change                         Max.-Flux-Residual
  Residual-Control   Outer-Iter.   Inner-Iter.     Column Row Layer    Maximum-Head-Change  Column Row Layer    Maximum-Flux-Residual          L2-NORM 
          0                 1           2             5    4     2      -0.3181246507E+00       5    4    2        -0.9568207579E+01      0.1641507042E+02
          0                 2           2             6   13     2       0.1405185526E-01       6   13    2         0.4995826224E+00      0.1058996659E+01
          0                 3           1             6   13     2      -0.7746593592E-03       6   13    2        -0.2865850044E-01      0.5241442300E-01

    ------------------------------------------------
       NWT REQUIRED            3 OUTER ITERATIONS 
       AND A TOTAL OF          5 INNER ITERATIONS.
    ------------------------------------------------

 NO OUTPUT CONTROL FOR STRESS PERIOD    7   TIME STEP    4
 
 SOLVING FOR HEAD 
                                                   Max.-Head-Change                         Max.-Flux-Residual
  Residual-Control   Outer-Iter.   Inner-Iter.     Column Row Layer    Maximum-Head-Change  Column Row Layer    Maximum-Flux-Residual          L2-NORM 
          0                 1           2             5    4     2      -0.2841489843E+00       5    4    2        -0.8512791679E+01      0.1458260919E+02
          0                 2           2             6   13     2       0.1099654750E-01       6   13    2         0.3913022157E+00      0.9189073938E+00
          0                 3           1             4    3     2       0.6158646146E-03       6   13    2        -0.2244179583E-01      0.4483919274E-01

    ------------------------------------------------
       NWT REQUIRED            3 OUTER ITERATIONS 
       AND A TOTAL OF          5 INNER ITERATIONS.
    ------------------------------------------------

 OUTPUT CONTROL FOR STRESS PERIOD    7   TIME STEP    5
    PRINT BUDGET
    SAVE BUDGET

            WELLS   PERIOD    7   STEP   5
 WELL      1   LAYER   2   ROW     6   COL     4   RATE    -2.00000    
 WELL      2   LAYER   2   ROW     6   COL     5   RATE    -2.00000    
 WELL      3   LAYER   2   ROW     7   COL     4   RATE    -2.00000    
 WELL      4   LAYER   2   ROW     7   COL     5   RATE    -2.00000    
 WELL      5   LAYER   2   ROW     8   COL     4   RATE    -2.00000    
 WELL      6   LAYER   2   ROW     8   COL     5   RATE    -2.00000    
 WELL      7   LAYER   2   ROW     9   COL     4   RATE    -2.00000    
 WELL      8   LAYER   2   ROW     9   COL     5   RATE    -2.00000    
 WELL      9   LAYER   2   ROW    10   COL     4   RATE    -2.00000    
 WELL     10   LAYER   2   ROW    10   COL     5   RATE    -2.00000    

  HEAD DEP BOUNDS   PERIOD    7   STEP     5
 BOUNDARY      1   LAYER   2   ROW    13   COL     1   RATE   -0.327714    
 BOUNDARY      2   LAYER   2   ROW    14   COL     9   RATE    0.214288    



 STREAM LISTING     PERIOD      7   STEP        5

 LAYER ROW COL. STREAM  RCH.  FLOW INTO     FLOW TO   FLOW OUT OF   OVRLND.     DIRECT     STREAM       STREAM     STREAM     STREAM   STREAMBED  STREAMBED
                SEG.NO.  NO.  STRM. RCH.    AQUIFER    STRM. RCH.    RUNOFF     PRECIP       ET          HEAD       DEPTH      WIDTH   CONDCTNC.   GRADIENT

   2    1    1     1     1    3.0400E+02  2.6566E+00   3.0134E+02  0.000E+00  0.000E+00  0.000E+00  1.09577E+03  2.719E+00  3.337E+01  1.501E+00  5.898E-01
   2    2    2     1     2    3.0134E+02  8.5671E+00   2.9278E+02  0.000E+00  0.000E+00  0.000E+00  1.09076E+03  2.701E+00  3.313E+01  2.319E+00  1.231E+00
   2    3    3     1     3    2.9278E+02  1.1123E+01   2.8165E+02  0.000E+00  0.000E+00  0.000E+00  1.08509E+03  2.667E+00  3.271E+01  1.963E+00  1.889E+00
   2    3    4     1     4    2.8165E+02  1.0078E+01   2.7158E+02  0.000E+00  0.000E+00  0.000E+00  1.08004E+03  2.630E+00  3.225E+01  1.790E+00  1.877E+00
   2    4    5     2     1    2.6158E+02  0.0000E+00   2.6158E+02  0.000E+00  0.000E+00  0.000E+00  1.07687E+03  4.940E+00  1.200E+01  0.000E+00  2.647E+00
   2    5    6     2     2    2.6158E+02  4.7477E+00   2.5683E+02  0.000E+00  0.000E+00  0.000E+00  1.07142E+03  4.913E+00  1.200E+01  6.000E-01  2.638E+00
   2    6    6     2     3    2.5683E+02  4.7153E+00   2.5211E+02  0.000E+00  0.000E+00  0.000E+00  1.06665E+03  4.859E+00  1.200E+01  6.000E-01  2.620E+00
   2    7    6     2     4    2.5211E+02  4.6828E+00   2.4743E+02  0.000E+00  0.000E+00  0.000E+00  1.06188E+03  4.805E+00  1.200E+01  6.000E-01  2.602E+00
   2    8    6     2     5    2.4743E+02  4.6504E+00   2.4278E+02  0.000E+00  0.000E+00  0.000E+00  1.05711E+03  4.751E+00  1.200E+01  6.000E-01  2.584E+00
   2    3    5     3     1    1.0000E+01  2.8252E+00   7.1748E+00  0.000E+00  0.000E+00  0.000E+00  1.07555E+03  1.909E+00  9.636E+00  7.227E-01  1.955E+00
   2    3    6     3     2    7.1748E+00  2.4905E+00   4.6843E+00  0.000E+00  0.000E+00  0.000E+00  1.07264E+03  1.727E+00  8.909E+00  6.682E-01  1.864E+00
   2    3    7     3     3    4.6843E+00  1.9718E+00   2.7125E+00  0.000E+00  0.000E+00  0.000E+00  1.06987E+03  1.555E+00  8.218E+00  5.547E-01  1.777E+00
   2    4    8     3     4    2.7125E+00  2.2567E+00   4.5579E-01  0.000E+00  0.000E+00  0.000E+00  1.06682E+03  1.364E+00  7.455E+00  6.709E-01  1.682E+00
   2    5    8     3     5    4.5579E-01  4.5579E-01   0.0000E+00  0.000E+00  0.000E+00  0.000E+00  1.06362E+03  0.000E+00  6.655E+00  4.991E-01  1.582E+00
   2    6    8     3     6    0.0000E+00  0.0000E+00   0.0000E+00  0.000E+00  0.000E+00  0.000E+00  1.06055E+03  0.000E+00  6.145E+00  1.844E-01  1.000E+00
   2    5   10     4     1    1.0000E+01  9.0525E-01   9.0947E+00  0.000E+00  0.000E+00  0.000E+00  1.07835E+03  6.210E-01  1.000E+01  2.500E-01  1.207E+00
   2    5    9     4     2    9.0947E+00  1.7835E+00   7.3113E+00  0.000E+00  0.000E+00  0.000E+00  1.07148E+03  5.670E-01  1.000E+01  5.000E-01  1.189E+00
   2    6    8     4     3    7.3113E+00  1.2257E+00   6.0855E+00  0.000E+00  0.000E+00  0.000E+00  1.06368E+03  5.021E-01  1.000E+01  3.500E-01  1.167E+00
   2    6    8     5     1    6.0855E+00  1.4716E+00   4.6139E+00  0.000E+00  0.000E+00  0.000E+00  1.05854E+03  5.396E-01  1.039E+01  4.158E-01  1.180E+00
   2    7    7     5     2    4.6139E+00  1.4897E+00   3.1242E+00  0.000E+00  0.000E+00  0.000E+00  1.05398E+03  4.817E-01  8.557E+00  4.279E-01  1.161E+00
   2    8    7     5     3    3.1242E+00  8.2855E-01   2.2957E+00  0.000E+00  0.000E+00  0.000E+00  1.04968E+03  4.253E-01  6.911E+00  2.419E-01  1.142E+00
   2    8    6     5     4    2.2957E+00  4.9455E-01   1.8011E+00  0.000E+00  0.000E+00  0.000E+00  1.04664E+03  3.856E-01  5.843E+00  1.461E-01  1.129E+00
   2    9    6     6     1    2.4458E+02  4.6621E+00   2.3992E+02  0.000E+00  0.000E+00  0.000E+00  1.04750E+03  4.770E+00  1.200E+01  6.000E-01  2.590E+00
   2   10    7     6     2    2.3992E+02  4.6290E+00   2.3529E+02  0.000E+00  0.000E+00  0.000E+00  1.04290E+03  4.715E+00  1.200E+01  6.000E-01  2.572E+00
   2   11    7     6     3    2.3529E+02  3.9091E+00   2.3138E+02  0.000E+00  0.000E+00  0.000E+00  1.03830E+03  4.664E+00  1.200E+01  6.000E-01  2.172E+00
   2   12    7     6     4    2.3138E+02  2.3780E+00   2.2900E+02  0.000E+00  0.000E+00  0.000E+00  1.03372E+03  4.626E+00  1.200E+01  6.000E-01  1.321E+00
   2   13    7     6     5    2.2900E+02  2.0356E-01   2.2880E+02  0.000E+00  0.000E+00  0.000E+00  1.03052E+03  4.611E+00  1.200E+01  2.400E-01  2.827E-01
   2   14    9     7     1    1.5000E+02  2.8159E+00   1.4718E+02  0.000E+00  0.000E+00  0.000E+00  1.03986E+03  2.284E+00  5.528E+01  5.591E+00  1.679E-01
   2   13    8     7     2    1.4718E+02  3.5181E+00   1.4367E+02  0.000E+00  0.000E+00  0.000E+00  1.03477E+03  2.267E+00  5.520E+01  6.141E+00  1.910E-01
   2   13    7     7     3    1.4367E+02  2.8852E-02   1.4364E+02  0.000E+00  0.000E+00  0.000E+00  1.02968E+03  2.257E+00  5.516E+01  5.578E+00  1.724E-03
   2   13    6     8     1    3.7244E+02  1.9919E-01   3.7341E+02  1.170E+00  0.000E+00  0.000E+00  1.02584E+03  3.964E+00  5.747E+01  5.857E+00  1.134E-02
   2   13    5     8     2    3.7341E+02 -1.3740E+00   3.7595E+02  1.170E+00  0.000E+00  0.000E+00  1.01960E+03  3.971E+00  5.757E+01  5.867E+00 -7.806E-02
   2   13    4     8     3    3.7595E+02 -3.3502E+00   3.8047E+02  1.170E+00  0.000E+00  0.000E+00  1.01336E+03  3.985E+00  5.778E+01  5.888E+00 -1.897E-01
   2   13    3     8     4    3.8047E+02 -4.4317E+00   3.8607E+02  1.170E+00  0.000E+00  0.000E+00  1.00713E+03  4.004E+00  5.802E+01  5.912E+00 -2.499E-01
   2   13    2     8     5    3.8607E+02 -5.3143E+00   3.9256E+02  1.170E+00  0.000E+00  0.000E+00  1.00090E+03  4.024E+00  5.810E+01  5.922E+00 -2.991E-01
   2   13    1     8     6    3.9256E+02 -2.5221E+00   3.9578E+02  7.019E-01  0.000E+00  0.000E+00  9.95915E+02  4.040E+00  5.817E+01  3.557E+00 -2.363E-01
   2    4    5     9     1    0.0000E+00  0.0000E+00   0.0000E+00  0.000E+00  0.000E+00  0.000E+00  1.06020E+03  1.971E-01  2.000E+01  0.000E+00 -1.997E-01
   2    4    5    10     1    0.0000E+00  0.0000E+00   0.0000E+00  0.000E+00  0.000E+00  0.000E+00  1.08000E+03  0.000E+00  2.000E+01  2.000E-03  1.000E+00





     0  LAKE CELLS ARE DRY.

 PERIOD     7     TIME STEP     5     TIME STEP LENGTH  1.7520E+05
 PERIOD TIME  8.7600E+05     TOTAL SIMULATION TIME  1.6644E+07


                 HYDROLOGIC BUDGET SUMMARIES FOR SIMULATED LAKES
     (ALL FLUID FLUXES ARE VOLUMES ADDED TO THE LAKE DURING PRESENT TIME STEP)
     ----------------------------------------------------------------------------------------
 LAKE    STAGE         VOLUME     VOL. CHANGE      PRECIP     EVAPORATION    SPECIFIED RUNOFF     COMPUTED RUNOFF    TOTAL RUNOFF
   1  1.074508E+03  1.352791E+03 -3.938436E+02  0.000000E+00  1.493604E+02   0.000000E+00          0.000000E+00      0.000000E+00

            GROUND WATER            SURFACE WATER        WATER          UZF INFIL.
 LAKE    INFLOW     OUTFLOW      INFLOW     OUTFLOW       USE        FROM LAKE
   1  0.0000E+00  0.0000E+00  0.0000E+00  0.0000E+00  0.0000E+00       2.4448E+02

      CONNECTED LAKE   TIME-STEP         STAGE-CHANGE          PERCENT
 LAKE    INFLUX      SURFACE AREA   TIME STEP  CUMULATIVE    DISCREPANCY
   1   0.0000E+00     2.1313E+04  -2.2933E-03  8.0827E-03       0.002
 --------------------------------------------------------------------------------



            CUMULATIVE HYDROLOGIC BUDGET SUMMARIES FOR SIMULATED LAKES
     (ALL FLUID FLUXES ARE SUMS OF VOLUMES ADDED TO THE LAKE SINCE INITIAL TIME)
     ---------------------------------------------------------------------------
 LAKE       PRECIP       EVAP     SPECIFIED RUNOFF   COMPUTED RUNOFF   TOTAL RUNOFF
   1     0.0000E+00  1.6024E+06       0.0000E+00       0.0000E+00       0.0000E+00

            GROUND WATER            SURFACE WATER       UZF INFIL.
 LAKE    INFLOW     OUTFLOW      INFLOW     OUTFLOW     FROM LAKE
   1  0.0000E+00  0.0000E+00  1.9325E+08  4.8785E+07    1.4286E+08

         WATER    CONNECTED LAKE   CHANGE       PERCENT
 LAKE     USE         INFLUX       IN VOL.    DISCREPANCY
   1   0.0000E+00   0.0000E+00   1.3528E+03     -0.000
 --------------------------------------------------------------------------------

 UBDSV3 SAVING "           GW ET" ON UNIT  61 AT TIME STEP 5, STRESS PERIOD 7
 UBDSV3 SAVING "    UZF RECHARGE" ON UNIT  61 AT TIME STEP 5, STRESS PERIOD 7
 UBDSV3 SAVING " SURFACE LEAKAGE" ON UNIT  61 AT TIME STEP 5, STRESS PERIOD 7


UNSATURATED ZONE PACKAGE VOLUMETRIC BUDGET FOR  TIME STEP     5 STRESS PERIOD    7
  ------------------------------------------------------------------------------



     CUMULATIVE VOLUMES      L**3       RATES FOR THIS TIME STEP      L**3/T
     ------------------                 ------------------------

           IN:                                      IN:
           ---                                      ---
        INFILTRATION =  1342274404.4436          INFILTRATION =          25.1716

          OUT:                                     OUT:
          ----                                     ----
              UZF ET =  1138654261.5840                UZF ET =          59.6769
        UZF RECHARGE =   620220873.5564          UZF RECHARGE =          19.8467

            IN - OUT =  -416600730.6967              IN - OUT =         -54.3520

          STORAGE:                                 STORAGE:
          --------                                 --------
      STORAGE CHANGE =  -415873141.9040        STORAGE CHANGE =         -54.3238

 PERCENT DISCREPANCY IS DIFFERENCE BETWEEN IN-OUT MINUS CHANGE IN STORAGE
 DIVIDED BY THE AVERAGE OF IN AND OUT TIMES 100

 PERCENT DISCREPANCY =          -0.01     PERCENT DISCREPANCY =          -0.04






1
  VOLUMETRIC BUDGET FOR ENTIRE MODEL AT END OF TIME STEP    5, STRESS PERIOD   7
  ------------------------------------------------------------------------------

     CUMULATIVE VOLUMES      L**3       RATES FOR THIS TIME STEP      L**3/T
     ------------------                 ------------------------

           IN:                                      IN:
           ---                                      ---
             STORAGE     =   121473680.0000               STORAGE     =          19.2215
       CONSTANT HEAD     =           0.0000         CONSTANT HEAD     =           0.0000
               WELLS     =           0.0000                 WELLS     =           0.0000
     HEAD DEP BOUNDS     =     3570146.0000       HEAD DEP BOUNDS     =           0.2143
      STREAM LEAKAGE     =  1230200704.0000        STREAM LEAKAGE     =          91.7634
       LAKE  SEEPAGE     =           0.0000         LAKE  SEEPAGE     =           0.0000
        UZF RECHARGE     =   620220800.0000          UZF RECHARGE     =          19.8467
               GW ET     =           0.0000                 GW ET     =           0.0000
     SURFACE LEAKAGE     =           0.0000       SURFACE LEAKAGE     =           0.0000

                TOTAL IN =  1975465344.0000                  TOTAL IN =         131.0459

          OUT:                                     OUT:
          ----                                     ----
             STORAGE     =  1136135296.0000               STORAGE     =          70.7036
       CONSTANT HEAD     =           0.0000         CONSTANT HEAD     =           0.0000
               WELLS     =   254040000.0000                 WELLS     =          20.0000
     HEAD DEP BOUNDS     =     4985607.0000       HEAD DEP BOUNDS     =           0.3277
      STREAM LEAKAGE     =   295567520.0000        STREAM LEAKAGE     =          16.9923
       LAKE  SEEPAGE     =           0.0000         LAKE  SEEPAGE     =           0.0000
        UZF RECHARGE     =           0.0000          UZF RECHARGE     =           0.0000
               GW ET     =   218647072.0000                 GW ET     =          16.6532
     SURFACE LEAKAGE     =    66070432.0000       SURFACE LEAKAGE     =           6.3700

               TOTAL OUT =  1975445760.0000                 TOTAL OUT =         131.0469

                IN - OUT =       19584.0000                  IN - OUT =      -9.4604E-04

     PERCENT DISCREPANCY =           0.00         PERCENT DISCREPANCY =          -0.00






         TIME SUMMARY AT END OF TIME STEP    5 IN STRESS PERIOD    7
                    SECONDS     MINUTES      HOURS       DAYS        YEARS
                    -----------------------------------------------------------
   TIME STEP LENGTH 1.75200E+05  2920.0      48.667      2.0278     5.55175E-03
 STRESS PERIOD TIME 8.76000E+05  14600.      243.33      10.139     2.77588E-02
         TOTAL TIME 1.66440E+07 2.77400E+05  4623.3      192.64     0.52742    
1
 
 SOLVING FOR HEAD 
                                                   Max.-Head-Change                         Max.-Flux-Residual
  Residual-Control   Outer-Iter.   Inner-Iter.     Column Row Layer    Maximum-Head-Change  Column Row Layer    Maximum-Flux-Residual          L2-NORM 
          0                 1           2             5    4     2      -0.2553392363E+00       5    4    2        -0.7618651739E+01      0.1416572176E+02
          0                 2           2             6   13     2       0.1358383283E-01       6   13    2         0.4736551333E+00      0.8966371274E+00
          0                 3           1             6   13     2      -0.7389652666E-03       6   13    2        -0.2683487461E-01      0.4280055644E-01

    ------------------------------------------------
       NWT REQUIRED            3 OUTER ITERATIONS 
       AND A TOTAL OF          5 INNER ITERATIONS.
    ------------------------------------------------

 NO OUTPUT CONTROL FOR STRESS PERIOD    7   TIME STEP    6
 
 SOLVING FOR HEAD 
                                                   Max.-Head-Change                         Max.-Flux-Residual
  Residual-Control   Outer-Iter.   Inner-Iter.     Column Row Layer    Maximum-Head-Change  Column Row Layer    Maximum-Flux-Residual          L2-NORM 
          0                 1           2             5    4     2      -0.2278917524E+00       5    4    2        -0.6772229758E+01      0.1333872948E+02
          0                 2           2             6   13     2       0.1306422033E-01       6   13    2         0.4511593674E+00      0.8580228723E+00
          0                 3           1             6   13     2      -0.7077633882E-03       6   13    2        -0.2546189081E-01      0.4142412587E-01

    ------------------------------------------------
       NWT REQUIRED            3 OUTER ITERATIONS 
       AND A TOTAL OF          5 INNER ITERATIONS.
    ------------------------------------------------

 NO OUTPUT CONTROL FOR STRESS PERIOD    7   TIME STEP    7
 
 SOLVING FOR HEAD 
                                                   Max.-Head-Change                         Max.-Flux-Residual
  Residual-Control   Outer-Iter.   Inner-Iter.     Column Row Layer    Maximum-Head-Change  Column Row Layer    Maximum-Flux-Residual          L2-NORM 
          0                 1           2             5    4     2      -0.2035635853E+00       5    4    2        -0.6026960560E+01      0.1173233120E+02
          0                 2           2             6   13     2       0.1029057675E-01       6   13    2         0.3549818219E+00      0.7411148459E+00
          0                 3           1             6   13     2      -0.5544063914E-03       6   13    2        -0.1993038163E-01      0.3511811334E-01

    ------------------------------------------------
       NWT REQUIRED            3 OUTER ITERATIONS 
       AND A TOTAL OF          5 INNER ITERATIONS.
    ------------------------------------------------

 NO OUTPUT CONTROL FOR STRESS PERIOD    7   TIME STEP    8
 
 SOLVING FOR HEAD 
                                                   Max.-Head-Change                         Max.-Flux-Residual
  Residual-Control   Outer-Iter.   Inner-Iter.     Column Row Layer    Maximum-Head-Change  Column Row Layer    Maximum-Flux-Residual          L2-NORM 
          0                 1           2             5    4     2      -0.1829129249E+00       5    4    2        -0.5395791269E+01      0.1052835514E+02
          0                 2           2             6   13     2       0.8098638781E-02       6   13    2         0.2790879266E+00      0.6459837099E+00
          0                 3           1             6   13     2      -0.4338014097E-03       6   13    2        -0.1558534000E-01      0.3004566673E-01

    ------------------------------------------------
       NWT REQUIRED            3 OUTER ITERATIONS 
       AND A TOTAL OF          5 INNER ITERATIONS.
    ------------------------------------------------

 NO OUTPUT CONTROL FOR STRESS PERIOD    7   TIME STEP    9
 
 SOLVING FOR HEAD 
                                                   Max.-Head-Change                         Max.-Flux-Residual
  Residual-Control   Outer-Iter.   Inner-Iter.     Column Row Layer    Maximum-Head-Change  Column Row Layer    Maximum-Flux-Residual          L2-NORM 
          0                 1           2             5    4     2      -0.1624455319E+00       5    4    2        -0.4772388700E+01      0.1029330405E+02
          0                 2           2             2    2     2       0.8780912697E-02       6   13    2         0.2847207714E+00      0.6699291673E+00
          0                 3           1             2    2     2      -0.5044937678E-03       6   13    2        -0.1583518188E-01      0.3206604180E-01

    ------------------------------------------------
       NWT REQUIRED            3 OUTER ITERATIONS 
       AND A TOTAL OF          5 INNER ITERATIONS.
    ------------------------------------------------

 OUTPUT CONTROL FOR STRESS PERIOD    7   TIME STEP   10
    PRINT BUDGET
    SAVE BUDGET

            WELLS   PERIOD    7   STEP  10
 WELL      1   LAYER   2   ROW     6   COL     4   RATE    -2.00000    
 WELL      2   LAYER   2   ROW     6   COL     5   RATE    -2.00000    
 WELL      3   LAYER   2   ROW     7   COL     4   RATE    -2.00000    
 WELL      4   LAYER   2   ROW     7   COL     5   RATE    -2.00000    
 WELL      5   LAYER   2   ROW     8   COL     4   RATE    -2.00000    
 WELL      6   LAYER   2   ROW     8   COL     5   RATE    -2.00000    
 WELL      7   LAYER   2   ROW     9   COL     4   RATE    -2.00000    
 WELL      8   LAYER   2   ROW     9   COL     5   RATE    -2.00000    
 WELL      9   LAYER   2   ROW    10   COL     4   RATE    -2.00000    
 WELL     10   LAYER   2   ROW    10   COL     5   RATE    -2.00000    

  HEAD DEP BOUNDS   PERIOD    7   STEP    10
 BOUNDARY      1   LAYER   2   ROW    13   COL     1   RATE   -0.318820    
 BOUNDARY      2   LAYER   2   ROW    14   COL     9   RATE    0.214297    



 STREAM LISTING     PERIOD      7   STEP       10

 LAYER ROW COL. STREAM  RCH.  FLOW INTO     FLOW TO   FLOW OUT OF   OVRLND.     DIRECT     STREAM       STREAM     STREAM     STREAM   STREAMBED  STREAMBED
                SEG.NO.  NO.  STRM. RCH.    AQUIFER    STRM. RCH.    RUNOFF     PRECIP       ET          HEAD       DEPTH      WIDTH   CONDCTNC.   GRADIENT

   2    1    1     1     1    1.3412E+02  1.3924E+00   1.3273E+02  0.000E+00  0.000E+00  0.000E+00  1.09505E+03  2.004E+00  2.452E+01  1.103E+00  4.206E-01
   2    2    2     1     2    1.3273E+02  5.7166E+00   1.2701E+02  0.000E+00  0.000E+00  0.000E+00  1.09004E+03  1.984E+00  2.427E+01  1.699E+00  1.122E+00
   2    3    3     1     3    1.2701E+02  7.0693E+00   1.1994E+02  0.000E+00  0.000E+00  0.000E+00  1.08437E+03  1.947E+00  2.382E+01  1.429E+00  1.649E+00
   2    3    4     1     4    1.1994E+02  6.3512E+00   1.1359E+02  0.000E+00  0.000E+00  0.000E+00  1.07931E+03  1.907E+00  2.332E+01  1.294E+00  1.636E+00
   2    4    5     2     1    1.0359E+02  0.0000E+00   1.0359E+02  0.000E+00  0.000E+00  0.000E+00  1.07477E+03  2.834E+00  1.200E+01  0.000E+00  1.945E+00
   2    5    6     2     2    1.0359E+02  3.4830E+00   1.0011E+02  0.000E+00  0.000E+00  0.000E+00  1.06931E+03  2.805E+00  1.200E+01  6.000E-01  1.935E+00
   2    6    6     2     3    1.0011E+02  3.4484E+00   9.6662E+01  0.000E+00  0.000E+00  0.000E+00  1.06454E+03  2.747E+00  1.200E+01  6.000E-01  1.916E+00
   2    7    6     2     4    9.6662E+01  3.4137E+00   9.3249E+01  0.000E+00  0.000E+00  0.000E+00  1.05976E+03  2.689E+00  1.200E+01  6.000E-01  1.896E+00
   2    8    6     2     5    9.3249E+01  3.3788E+00   8.9870E+01  0.000E+00  0.000E+00  0.000E+00  1.05499E+03  2.631E+00  1.200E+01  6.000E-01  1.877E+00
   2    3    5     3     1    1.0000E+01  2.8252E+00   7.1748E+00  0.000E+00  0.000E+00  0.000E+00  1.07555E+03  1.909E+00  9.636E+00  7.227E-01  1.955E+00
   2    3    6     3     2    7.1748E+00  2.4905E+00   4.6843E+00  0.000E+00  0.000E+00  0.000E+00  1.07264E+03  1.727E+00  8.909E+00  6.682E-01  1.864E+00
   2    3    7     3     3    4.6843E+00  1.9718E+00   2.7125E+00  0.000E+00  0.000E+00  0.000E+00  1.06987E+03  1.555E+00  8.218E+00  5.547E-01  1.777E+00
   2    4    8     3     4    2.7125E+00  2.2567E+00   4.5579E-01  0.000E+00  0.000E+00  0.000E+00  1.06682E+03  1.364E+00  7.455E+00  6.709E-01  1.682E+00
   2    5    8     3     5    4.5579E-01  4.5579E-01   0.0000E+00  0.000E+00  0.000E+00  0.000E+00  1.06362E+03  0.000E+00  6.655E+00  4.991E-01  1.582E+00
   2    6    8     3     6    0.0000E+00  0.0000E+00   0.0000E+00  0.000E+00  0.000E+00  0.000E+00  1.06055E+03  0.000E+00  6.145E+00  1.844E-01  1.000E+00
   2    5   10     4     1    1.0000E+01  9.0525E-01   9.0947E+00  0.000E+00  0.000E+00  0.000E+00  1.07835E+03  6.210E-01  1.000E+01  2.500E-01  1.207E+00
   2    5    9     4     2    9.0947E+00  1.7835E+00   7.3113E+00  0.000E+00  0.000E+00  0.000E+00  1.07148E+03  5.670E-01  1.000E+01  5.000E-01  1.189E+00
   2    6    8     4     3    7.3113E+00  1.2257E+00   6.0855E+00  0.000E+00  0.000E+00  0.000E+00  1.06368E+03  5.021E-01  1.000E+01  3.500E-01  1.167E+00
   2    6    8     5     1    6.0855E+00  1.4716E+00   4.6139E+00  0.000E+00  0.000E+00  0.000E+00  1.05854E+03  5.396E-01  1.039E+01  4.158E-01  1.180E+00
   2    7    7     5     2    4.6139E+00  1.4897E+00   3.1242E+00  0.000E+00  0.000E+00  0.000E+00  1.05398E+03  4.817E-01  8.557E+00  4.279E-01  1.161E+00
   2    8    7     5     3    3.1242E+00  8.2855E-01   2.2957E+00  0.000E+00  0.000E+00  0.000E+00  1.04968E+03  4.253E-01  6.911E+00  2.419E-01  1.142E+00
   2    8    6     5     4    2.2957E+00  4.9455E-01   1.8011E+00  0.000E+00  0.000E+00  0.000E+00  1.04664E+03  3.856E-01  5.843E+00  1.461E-01  1.129E+00
   2    9    6     6     1    9.1671E+01  3.3799E+00   8.8291E+01  0.000E+00  0.000E+00  0.000E+00  1.04536E+03  2.633E+00  1.200E+01  6.000E-01  1.878E+00
   2   10    7     6     2    8.8291E+01  3.3442E+00   8.4947E+01  0.000E+00  0.000E+00  0.000E+00  1.04076E+03  2.574E+00  1.200E+01  6.000E-01  1.858E+00
   2   11    7     6     3    8.4947E+01  2.6351E+00   8.2312E+01  0.000E+00  0.000E+00  0.000E+00  1.03616E+03  2.520E+00  1.200E+01  6.000E-01  1.464E+00
   2   12    7     6     4    8.2312E+01  1.1559E+00   8.1156E+01  0.000E+00  0.000E+00  0.000E+00  1.03158E+03  2.486E+00  1.200E+01  6.000E-01  6.422E-01
   2   13    7     6     5    8.1156E+01 -2.8053E-01   8.1437E+01  0.000E+00  0.000E+00  0.000E+00  1.02839E+03  2.478E+00  1.200E+01  2.400E-01 -3.896E-01
   2   14    9     7     1    1.5000E+02  2.8171E+00   1.4718E+02  0.000E+00  0.000E+00  0.000E+00  1.03986E+03  2.284E+00  5.528E+01  5.591E+00  1.680E-01
   2   13    8     7     2    1.4718E+02  3.5142E+00   1.4367E+02  0.000E+00  0.000E+00  0.000E+00  1.03477E+03  2.267E+00  5.520E+01  6.141E+00  1.908E-01
   2   13    7     7     3    1.4367E+02  6.6644E-01   1.4300E+02  0.000E+00  0.000E+00  0.000E+00  1.02967E+03  2.256E+00  5.515E+01  5.577E+00  3.983E-02
   2   13    6     8     1    2.2444E+02 -5.6979E-01   2.2531E+02  3.003E-01  0.000E+00  0.000E+00  1.02515E+03  3.279E+00  4.754E+01  4.845E+00 -3.920E-02
   2   13    5     8     2    2.2531E+02 -3.1457E+00   2.2875E+02  3.003E-01  0.000E+00  0.000E+00  1.01892E+03  3.291E+00  4.771E+01  4.862E+00 -2.157E-01
   2   13    4     8     3    2.2875E+02 -5.2728E+00   2.3433E+02  3.003E-01  0.000E+00  0.000E+00  1.01269E+03  3.315E+00  4.807E+01  4.898E+00 -3.588E-01
   2   13    3     8     4    2.3433E+02 -6.1008E+00   2.4073E+02  3.003E-01  0.000E+00  0.000E+00  1.00647E+03  3.347E+00  4.853E+01  4.945E+00 -4.112E-01
   2   13    2     8     5    2.4073E+02 -5.2782E+00   2.4631E+02  3.003E-01  0.000E+00  0.000E+00  1.00025E+03  3.378E+00  4.898E+01  4.992E+00 -3.525E-01
   2   13    1     8     6    2.4631E+02 -3.3574E+00   2.4985E+02  1.802E-01  0.000E+00  0.000E+00  9.95277E+02  3.402E+00  4.933E+01  3.016E+00 -3.711E-01
   2    4    5     9     1    0.0000E+00  0.0000E+00   0.0000E+00  0.000E+00  0.000E+00  0.000E+00  1.06000E+03  0.000E+00  2.000E+01  2.000E-03  8.677E-02
   2    4    5    10     1    0.0000E+00  0.0000E+00   0.0000E+00  0.000E+00  0.000E+00  0.000E+00  1.08000E+03  0.000E+00  2.000E+01  2.000E-03  1.000E+00





     0  LAKE CELLS ARE DRY.

 PERIOD     7     TIME STEP    10     TIME STEP LENGTH  1.7520E+05
 PERIOD TIME  1.7520E+06     TOTAL SIMULATION TIME  1.7520E+07


                 HYDROLOGIC BUDGET SUMMARIES FOR SIMULATED LAKES
     (ALL FLUID FLUXES ARE VOLUMES ADDED TO THE LAKE DURING PRESENT TIME STEP)
     ----------------------------------------------------------------------------------------
 LAKE    STAGE         VOLUME     VOL. CHANGE      PRECIP     EVAPORATION    SPECIFIED RUNOFF     COMPUTED RUNOFF    TOTAL RUNOFF
   1  1.074503E+03  5.233460E+02 -9.254993E+01  0.000000E+00  5.778214E+01   0.000000E+00          0.000000E+00      0.000000E+00

            GROUND WATER            SURFACE WATER        WATER          UZF INFIL.
 LAKE    INFLOW     OUTFLOW      INFLOW     OUTFLOW       USE        FROM LAKE
   1  0.0000E+00  0.0000E+00  0.0000E+00  0.0000E+00  0.0000E+00       3.4768E+01

      CONNECTED LAKE   TIME-STEP         STAGE-CHANGE          PERCENT
 LAKE    INFLUX      SURFACE AREA   TIME STEP  CUMULATIVE    DISCREPANCY
   1   0.0000E+00     8.2452E+03  -5.3522E-04  3.1269E-03      -0.000
 --------------------------------------------------------------------------------



            CUMULATIVE HYDROLOGIC BUDGET SUMMARIES FOR SIMULATED LAKES
     (ALL FLUID FLUXES ARE SUMS OF VOLUMES ADDED TO THE LAKE SINCE INITIAL TIME)
     ---------------------------------------------------------------------------
 LAKE       PRECIP       EVAP     SPECIFIED RUNOFF   COMPUTED RUNOFF   TOTAL RUNOFF
   1     0.0000E+00  1.6028E+06       0.0000E+00       0.0000E+00       0.0000E+00

            GROUND WATER            SURFACE WATER       UZF INFIL.
 LAKE    INFLOW     OUTFLOW      INFLOW     OUTFLOW     FROM LAKE
   1  0.0000E+00  0.0000E+00  1.9325E+08  4.8785E+07    1.4286E+08

         WATER    CONNECTED LAKE   CHANGE       PERCENT
 LAKE     USE         INFLUX       IN VOL.    DISCREPANCY
   1   0.0000E+00   0.0000E+00   5.2335E+02     -0.000
 --------------------------------------------------------------------------------

 UBDSV3 SAVING "           GW ET" ON UNIT  61 AT TIME STEP 10, STRESS PERIOD 7
 UBDSV3 SAVING "    UZF RECHARGE" ON UNIT  61 AT TIME STEP 10, STRESS PERIOD 7
 UBDSV3 SAVING " SURFACE LEAKAGE" ON UNIT  61 AT TIME STEP 10, STRESS PERIOD 7


UNSATURATED ZONE PACKAGE VOLUMETRIC BUDGET FOR  TIME STEP    10 STRESS PERIOD    7
  ------------------------------------------------------------------------------



     CUMULATIVE VOLUMES      L**3       RATES FOR THIS TIME STEP      L**3/T
     ------------------                 ------------------------

           IN:                                      IN:
           ---                                      ---
        INFILTRATION =  1364383052.4627          INFILTRATION =          25.2701

          OUT:                                     OUT:
          ----                                     ----
              UZF ET =  1192227067.8241                UZF ET =          62.2706
        UZF RECHARGE =   634186412.0897          UZF RECHARGE =          14.2283

            IN - OUT =  -462030427.4511              IN - OUT =         -51.2288

          STORAGE:                                 STORAGE:
          --------                                 --------
      STORAGE CHANGE =  -461293204.1494        STORAGE CHANGE =         -51.2260

 PERCENT DISCREPANCY IS DIFFERENCE BETWEEN IN-OUT MINUS CHANGE IN STORAGE
 DIVIDED BY THE AVERAGE OF IN AND OUT TIMES 100

 PERCENT DISCREPANCY =          -0.01     PERCENT DISCREPANCY =          -0.00






1
  VOLUMETRIC BUDGET FOR ENTIRE MODEL AT END OF TIME STEP   10, STRESS PERIOD   7
  ------------------------------------------------------------------------------

     CUMULATIVE VOLUMES      L**3       RATES FOR THIS TIME STEP      L**3/T
     ------------------                 ------------------------

           IN:                                      IN:
           ---                                      ---
             STORAGE     =   141559824.0000               STORAGE     =          21.8544
       CONSTANT HEAD     =           0.0000         CONSTANT HEAD     =           0.0000
               WELLS     =           0.0000                 WELLS     =           0.0000
     HEAD DEP BOUNDS     =     3757873.5000       HEAD DEP BOUNDS     =           0.2143
      STREAM LEAKAGE     =  1295619200.0000        STREAM LEAKAGE     =          69.9650
       LAKE  SEEPAGE     =           0.0000         LAKE  SEEPAGE     =           0.0000
        UZF RECHARGE     =   634186368.0000          UZF RECHARGE     =          14.2283
               GW ET     =           0.0000                 GW ET     =           0.0000
     SURFACE LEAKAGE     =           0.0000       SURFACE LEAKAGE     =           0.0000

                TOTAL IN =  2075123328.0000                  TOTAL IN =         106.2620

          OUT:                                     OUT:
          ----                                     ----
             STORAGE     =  1180327424.0000               STORAGE     =          43.8770
       CONSTANT HEAD     =           0.0000         CONSTANT HEAD     =           0.0000
               WELLS     =   271560000.0000                 WELLS     =          20.0000
     HEAD DEP BOUNDS     =     5267986.0000       HEAD DEP BOUNDS     =           0.3188
      STREAM LEAKAGE     =   316294912.0000        STREAM LEAKAGE     =          24.0052
       LAKE  SEEPAGE     =           0.0000         LAKE  SEEPAGE     =           0.0000
        UZF RECHARGE     =           0.0000          UZF RECHARGE     =           0.0000
               GW ET     =   233135152.0000                 GW ET     =          16.4592
     SURFACE LEAKAGE     =    68517456.0000       SURFACE LEAKAGE     =           1.6005

               TOTAL OUT =  2075102848.0000                 TOTAL OUT =         106.2607

                IN - OUT =       20480.0000                  IN - OUT =       1.2589E-03

     PERCENT DISCREPANCY =           0.00         PERCENT DISCREPANCY =           0.00






         TIME SUMMARY AT END OF TIME STEP   10 IN STRESS PERIOD    7
                    SECONDS     MINUTES      HOURS       DAYS        YEARS
                    -----------------------------------------------------------
   TIME STEP LENGTH 1.75200E+05  2920.0      48.667      2.0278     5.55175E-03
 STRESS PERIOD TIME 1.75200E+06  29200.      486.67      20.278     5.55175E-02
         TOTAL TIME 1.75200E+07 2.92000E+05  4866.7      202.78     0.55518    
1
 
 SOLVING FOR HEAD 
                                                   Max.-Head-Change                         Max.-Flux-Residual
  Residual-Control   Outer-Iter.   Inner-Iter.     Column Row Layer    Maximum-Head-Change  Column Row Layer    Maximum-Flux-Residual          L2-NORM 
          0                 1           2             5    4     2      -0.1467016089E+00       5    4    2        -0.4292633211E+01      0.9758966000E+01
          0                 2           2             2    2     2       0.8980123679E-02       2    2    2         0.2708294860E+00      0.6485942656E+00
          0                 3           1             2    2     2      -0.5150482843E-03       2    2    2        -0.1590100353E-01      0.3155700936E-01

    ------------------------------------------------
       NWT REQUIRED            3 OUTER ITERATIONS 
       AND A TOTAL OF          5 INNER ITERATIONS.
    ------------------------------------------------

 NO OUTPUT CONTROL FOR STRESS PERIOD    7   TIME STEP   11
 
 SOLVING FOR HEAD 
                                                   Max.-Head-Change                         Max.-Flux-Residual
  Residual-Control   Outer-Iter.   Inner-Iter.     Column Row Layer    Maximum-Head-Change  Column Row Layer    Maximum-Flux-Residual          L2-NORM 
          0                 1           2             5    4     2      -0.1336262463E+00       5    4    2        -0.3895732247E+01      0.8878170980E+01
          0                 2           2             2    2     2       0.7859746979E-02       2    2    2         0.2374407684E+00      0.5794154534E+00
          0                 3           1             2    2     2      -0.4508809770E-03       2    2    2        -0.1392753288E-01      0.2777964286E-01

    ------------------------------------------------
       NWT REQUIRED            3 OUTER ITERATIONS 
       AND A TOTAL OF          5 INNER ITERATIONS.
    ------------------------------------------------

 NO OUTPUT CONTROL FOR STRESS PERIOD    7   TIME STEP   12
 
 SOLVING FOR HEAD 
                                                   Max.-Head-Change                         Max.-Flux-Residual
  Residual-Control   Outer-Iter.   Inner-Iter.     Column Row Layer    Maximum-Head-Change  Column Row Layer    Maximum-Flux-Residual          L2-NORM 
          0                 1           2             5    4     2      -0.1178410490E+00       5    4    2        -0.3422328800E+01      0.7760591420E+01
          0                 2           2             2    2     2       0.5536222366E-02       2    2    2         0.1687872615E+00      0.4819366512E+00
          0                 3           1             2    2     2      -0.3186154519E-03       2    2    2        -0.9882449727E-02      0.2218428191E-01

    ------------------------------------------------
       NWT REQUIRED            3 OUTER ITERATIONS 
       AND A TOTAL OF          5 INNER ITERATIONS.
    ------------------------------------------------

 NO OUTPUT CONTROL FOR STRESS PERIOD    7   TIME STEP   13
 
 SOLVING FOR HEAD 
                                                   Max.-Head-Change                         Max.-Flux-Residual
  Residual-Control   Outer-Iter.   Inner-Iter.     Column Row Layer    Maximum-Head-Change  Column Row Layer    Maximum-Flux-Residual          L2-NORM 
          0                 1           2             3    2     2       0.1072688478E+00       5    4    2        -0.3094228123E+01      0.7019212695E+01
          0                 2           2             3    2     2      -0.4864046056E-02       3    2    2        -0.1347814084E+00      0.4154260805E+00
          0                 3           1             3    3     2       0.2313967204E-03       3    3    2         0.6888250643E-02      0.1820253197E-01

    ------------------------------------------------
       NWT REQUIRED            3 OUTER ITERATIONS 
       AND A TOTAL OF          5 INNER ITERATIONS.
    ------------------------------------------------

 NO OUTPUT CONTROL FOR STRESS PERIOD    7   TIME STEP   14
 
 SOLVING FOR HEAD 
                                                   Max.-Head-Change                         Max.-Flux-Residual
  Residual-Control   Outer-Iter.   Inner-Iter.     Column Row Layer    Maximum-Head-Change  Column Row Layer    Maximum-Flux-Residual          L2-NORM 
          0                 1           2             3    2     2       0.1037022889E+00       5    4    2        -0.2914622627E+01      0.6773041920E+01
          0                 2           2             3    2     2      -0.4782018145E-02       3    2    2        -0.1321989237E+00      0.4048857456E+00
          0                 3           1             3    3     2       0.2396776401E-03       3    3    2         0.7106084382E-02      0.1777698925E-01

    ------------------------------------------------
       NWT REQUIRED            3 OUTER ITERATIONS 
       AND A TOTAL OF          5 INNER ITERATIONS.
    ------------------------------------------------

 OUTPUT CONTROL FOR STRESS PERIOD    7   TIME STEP   15
    PRINT BUDGET
    PRINT HEAD FOR ALL LAYERS
    SAVE HEAD FOR ALL LAYERS
    SAVE BUDGET

            WELLS   PERIOD    7   STEP  15
 WELL      1   LAYER   2   ROW     6   COL     4   RATE    -2.00000    
 WELL      2   LAYER   2   ROW     6   COL     5   RATE    -2.00000    
 WELL      3   LAYER   2   ROW     7   COL     4   RATE    -2.00000    
 WELL      4   LAYER   2   ROW     7   COL     5   RATE    -2.00000    
 WELL      5   LAYER   2   ROW     8   COL     4   RATE    -2.00000    
 WELL      6   LAYER   2   ROW     8   COL     5   RATE    -2.00000    
 WELL      7   LAYER   2   ROW     9   COL     4   RATE    -2.00000    
 WELL      8   LAYER   2   ROW     9   COL     5   RATE    -2.00000    
 WELL      9   LAYER   2   ROW    10   COL     4   RATE    -2.00000    
 WELL     10   LAYER   2   ROW    10   COL     5   RATE    -2.00000    

  HEAD DEP BOUNDS   PERIOD    7   STEP    15
 BOUNDARY      1   LAYER   2   ROW    13   COL     1   RATE   -0.312451    
 BOUNDARY      2   LAYER   2   ROW    14   COL     9   RATE    0.214263    



 STREAM LISTING     PERIOD      7   STEP       15

 LAYER ROW COL. STREAM  RCH.  FLOW INTO     FLOW TO   FLOW OUT OF   OVRLND.     DIRECT     STREAM       STREAM     STREAM     STREAM   STREAMBED  STREAMBED
                SEG.NO.  NO.  STRM. RCH.    AQUIFER    STRM. RCH.    RUNOFF     PRECIP       ET          HEAD       DEPTH      WIDTH   CONDCTNC.   GRADIENT

   2    1    1     1     1    1.7500E+02  2.0032E+00   1.7300E+02  0.000E+00  0.000E+00  0.000E+00  1.09526E+03  2.213E+00  2.709E+01  1.219E+00  5.476E-01
   2    2    2     1     2    1.7300E+02  7.1326E+00   1.6586E+02  0.000E+00  0.000E+00  0.000E+00  1.09025E+03  2.191E+00  2.682E+01  1.878E+00  1.266E+00
   2    3    3     1     3    1.6586E+02  8.1516E+00   1.5771E+02  0.000E+00  0.000E+00  0.000E+00  1.08457E+03  2.153E+00  2.636E+01  1.582E+00  1.718E+00
   2    3    4     1     4    1.5771E+02  7.3463E+00   1.5037E+02  0.000E+00  0.000E+00  0.000E+00  1.07952E+03  2.114E+00  2.588E+01  1.436E+00  1.705E+00
   2    4    5     2     1    1.4037E+02  0.0000E+00   1.4037E+02  0.000E+00  0.000E+00  0.000E+00  1.07533E+03  3.400E+00  1.200E+01  0.000E+00  2.133E+00
   2    5    6     2     2    1.4037E+02  3.8234E+00   1.3654E+02  0.000E+00  0.000E+00  0.000E+00  1.06988E+03  3.372E+00  1.200E+01  6.000E-01  2.124E+00
   2    6    6     2     3    1.3654E+02  3.7898E+00   1.3275E+02  0.000E+00  0.000E+00  0.000E+00  1.06511E+03  3.316E+00  1.200E+01  6.000E-01  2.105E+00
   2    7    6     2     4    1.3275E+02  3.7562E+00   1.2900E+02  0.000E+00  0.000E+00  0.000E+00  1.06034E+03  3.260E+00  1.200E+01  6.000E-01  2.087E+00
   2    8    6     2     5    1.2900E+02  3.7225E+00   1.2527E+02  0.000E+00  0.000E+00  0.000E+00  1.05556E+03  3.204E+00  1.200E+01  6.000E-01  2.068E+00
   2    3    5     3     1    1.0000E+01  2.8252E+00   7.1748E+00  0.000E+00  0.000E+00  0.000E+00  1.07555E+03  1.909E+00  9.636E+00  7.227E-01  1.955E+00
   2    3    6     3     2    7.1748E+00  2.4905E+00   4.6843E+00  0.000E+00  0.000E+00  0.000E+00  1.07264E+03  1.727E+00  8.909E+00  6.682E-01  1.864E+00
   2    3    7     3     3    4.6843E+00  1.9718E+00   2.7125E+00  0.000E+00  0.000E+00  0.000E+00  1.06987E+03  1.555E+00  8.218E+00  5.547E-01  1.777E+00
   2    4    8     3     4    2.7125E+00  2.2567E+00   4.5579E-01  0.000E+00  0.000E+00  0.000E+00  1.06682E+03  1.364E+00  7.455E+00  6.709E-01  1.682E+00
   2    5    8     3     5    4.5579E-01  4.5579E-01   0.0000E+00  0.000E+00  0.000E+00  0.000E+00  1.06362E+03  0.000E+00  6.655E+00  4.991E-01  1.582E+00
   2    6    8     3     6    0.0000E+00  0.0000E+00   0.0000E+00  0.000E+00  0.000E+00  0.000E+00  1.06055E+03  0.000E+00  6.145E+00  1.844E-01  1.000E+00
   2    5   10     4     1    1.0000E+01  9.0525E-01   9.0947E+00  0.000E+00  0.000E+00  0.000E+00  1.07835E+03  6.210E-01  1.000E+01  2.500E-01  1.207E+00
   2    5    9     4     2    9.0947E+00  1.7835E+00   7.3113E+00  0.000E+00  0.000E+00  0.000E+00  1.07148E+03  5.670E-01  1.000E+01  5.000E-01  1.189E+00
   2    6    8     4     3    7.3113E+00  1.2257E+00   6.0855E+00  0.000E+00  0.000E+00  0.000E+00  1.06368E+03  5.021E-01  1.000E+01  3.500E-01  1.167E+00
   2    6    8     5     1    6.0855E+00  1.4716E+00   4.6139E+00  0.000E+00  0.000E+00  0.000E+00  1.05854E+03  5.396E-01  1.039E+01  4.158E-01  1.180E+00
   2    7    7     5     2    4.6139E+00  1.4897E+00   3.1242E+00  0.000E+00  0.000E+00  0.000E+00  1.05398E+03  4.817E-01  8.557E+00  4.279E-01  1.161E+00
   2    8    7     5     3    3.1242E+00  8.2855E-01   2.2957E+00  0.000E+00  0.000E+00  0.000E+00  1.04968E+03  4.253E-01  6.911E+00  2.419E-01  1.142E+00
   2    8    6     5     4    2.2957E+00  4.9455E-01   1.8011E+00  0.000E+00  0.000E+00  0.000E+00  1.04664E+03  3.856E-01  5.843E+00  1.461E-01  1.129E+00
   2    9    6     6     1    1.2708E+02  3.7262E+00   1.2335E+02  0.000E+00  0.000E+00  0.000E+00  1.04594E+03  3.210E+00  1.200E+01  6.000E-01  2.070E+00
   2   10    7     6     2    1.2335E+02  3.6918E+00   1.1966E+02  0.000E+00  0.000E+00  0.000E+00  1.04133E+03  3.153E+00  1.200E+01  6.000E-01  2.051E+00
   2   11    7     6     3    1.1966E+02  2.9920E+00   1.1667E+02  0.000E+00  0.000E+00  0.000E+00  1.03674E+03  3.101E+00  1.200E+01  6.000E-01  1.662E+00
   2   12    7     6     4    1.1667E+02  1.5554E+00   1.1511E+02  0.000E+00  0.000E+00  0.000E+00  1.03216E+03  3.065E+00  1.200E+01  6.000E-01  8.641E-01
   2   13    7     6     5    1.1511E+02 -1.2619E-01   1.1524E+02  0.000E+00  0.000E+00  0.000E+00  1.02896E+03  3.053E+00  1.200E+01  2.400E-01 -1.753E-01
   2   14    9     7     1    1.5000E+02  2.8122E+00   1.4719E+02  0.000E+00  0.000E+00  0.000E+00  1.03986E+03  2.284E+00  5.528E+01  5.591E+00  1.677E-01
   2   13    8     7     2    1.4719E+02  3.5335E+00   1.4365E+02  0.000E+00  0.000E+00  0.000E+00  1.03477E+03  2.267E+00  5.520E+01  6.141E+00  1.918E-01
   2   13    7     7     3    1.4365E+02  1.0354E+00   1.4262E+02  0.000E+00  0.000E+00  0.000E+00  1.02967E+03  2.255E+00  5.515E+01  5.577E+00  6.189E-02
   2   13    6     8     1    2.5786E+02  1.2232E+00   2.5684E+02  2.063E-01  0.000E+00  0.000E+00  1.02532E+03  3.449E+00  5.001E+01  5.096E+00  8.001E-02
   2   13    5     8     2    2.5684E+02 -1.9725E+00   2.5902E+02  2.063E-01  0.000E+00  0.000E+00  1.01908E+03  3.452E+00  5.005E+01  5.100E+00 -1.289E-01
   2   13    4     8     3    2.5902E+02 -4.5546E+00   2.6378E+02  2.063E-01  0.000E+00  0.000E+00  1.01284E+03  3.469E+00  5.030E+01  5.126E+00 -2.962E-01
   2   13    3     8     4    2.6378E+02 -5.3825E+00   2.6937E+02  2.063E-01  0.000E+00  0.000E+00  1.00662E+03  3.495E+00  5.067E+01  5.164E+00 -3.475E-01
   2   13    2     8     5    2.6937E+02 -3.6852E+00   2.7326E+02  2.063E-01  0.000E+00  0.000E+00  1.00039E+03  3.518E+00  5.101E+01  5.198E+00 -2.363E-01
   2   13    1     8     6    2.7326E+02 -2.5490E+00   2.7593E+02  1.238E-01  0.000E+00  0.000E+00  9.95409E+02  3.534E+00  5.124E+01  3.133E+00 -2.712E-01
   2    4    5     9     1    0.0000E+00  0.0000E+00   0.0000E+00  0.000E+00  0.000E+00  0.000E+00  1.06000E+03  0.000E+00  2.000E+01  2.000E-03  2.898E-01
   2    4    5    10     1    0.0000E+00  0.0000E+00   0.0000E+00  0.000E+00  0.000E+00  0.000E+00  1.08000E+03  0.000E+00  2.000E+01  2.000E-03  1.000E+00





     0  LAKE CELLS ARE DRY.

 PERIOD     7     TIME STEP    15     TIME STEP LENGTH  1.7520E+05
 PERIOD TIME  2.6280E+06     TOTAL SIMULATION TIME  1.8396E+07


                 HYDROLOGIC BUDGET SUMMARIES FOR SIMULATED LAKES
     (ALL FLUID FLUXES ARE VOLUMES ADDED TO THE LAKE DURING PRESENT TIME STEP)
     ----------------------------------------------------------------------------------------
 LAKE    STAGE         VOLUME     VOL. CHANGE      PRECIP     EVAPORATION    SPECIFIED RUNOFF     COMPUTED RUNOFF    TOTAL RUNOFF
   1  1.074502E+03  2.561273E+02 -3.648288E+01  0.000000E+00  2.827877E+01   0.000000E+00          0.000000E+00      0.000000E+00

            GROUND WATER            SURFACE WATER        WATER          UZF INFIL.
 LAKE    INFLOW     OUTFLOW      INFLOW     OUTFLOW       USE        FROM LAKE
   1  0.0000E+00  0.0000E+00  0.0000E+00  0.0000E+00  0.0000E+00       8.2041E+00

      CONNECTED LAKE   TIME-STEP         STAGE-CHANGE          PERCENT
 LAKE    INFLUX      SURFACE AREA   TIME STEP  CUMULATIVE    DISCREPANCY
   1   0.0000E+00     4.0352E+03  -1.7867E-04  1.5303E-03      -0.000
 --------------------------------------------------------------------------------



            CUMULATIVE HYDROLOGIC BUDGET SUMMARIES FOR SIMULATED LAKES
     (ALL FLUID FLUXES ARE SUMS OF VOLUMES ADDED TO THE LAKE SINCE INITIAL TIME)
     ---------------------------------------------------------------------------
 LAKE       PRECIP       EVAP     SPECIFIED RUNOFF   COMPUTED RUNOFF   TOTAL RUNOFF
   1     0.0000E+00  1.6030E+06       0.0000E+00       0.0000E+00       0.0000E+00

            GROUND WATER            SURFACE WATER       UZF INFIL.
 LAKE    INFLOW     OUTFLOW      INFLOW     OUTFLOW     FROM LAKE
   1  0.0000E+00  0.0000E+00  1.9325E+08  4.8785E+07    1.4286E+08

         WATER    CONNECTED LAKE   CHANGE       PERCENT
 LAKE     USE         INFLUX       IN VOL.    DISCREPANCY
   1   0.0000E+00   0.0000E+00   2.5613E+02     -0.000
 --------------------------------------------------------------------------------

 UBDSV3 SAVING "           GW ET" ON UNIT  61 AT TIME STEP 15, STRESS PERIOD 7
 UBDSV3 SAVING "    UZF RECHARGE" ON UNIT  61 AT TIME STEP 15, STRESS PERIOD 7
 UBDSV3 SAVING " SURFACE LEAKAGE" ON UNIT  61 AT TIME STEP 15, STRESS PERIOD 7


UNSATURATED ZONE PACKAGE VOLUMETRIC BUDGET FOR  TIME STEP    15 STRESS PERIOD    7
  ------------------------------------------------------------------------------



     CUMULATIVE VOLUMES      L**3       RATES FOR THIS TIME STEP      L**3/T
     ------------------                 ------------------------

           IN:                                      IN:
           ---                                      ---
        INFILTRATION =  1386537865.5482          INFILTRATION =          25.2908

          OUT:                                     OUT:
          ----                                     ----
              UZF ET =  1245800972.9654                UZF ET =          59.4392
        UZF RECHARGE =   645325675.5389          UZF RECHARGE =          11.8538

            IN - OUT =  -504588782.9561              IN - OUT =         -46.0022

          STORAGE:                                 STORAGE:
          --------                                 --------
      STORAGE CHANGE =  -503847335.5904        STORAGE CHANGE =         -45.9958

 PERCENT DISCREPANCY IS DIFFERENCE BETWEEN IN-OUT MINUS CHANGE IN STORAGE
 DIVIDED BY THE AVERAGE OF IN AND OUT TIMES 100

 PERCENT DISCREPANCY =          -0.01     PERCENT DISCREPANCY =          -0.01






1
              HEAD IN LAYER 1 AT END OF TIME STEP 15 IN STRESS PERIOD 7
  ---------------------------------------------------------------------------

           1       2       3       4       5       6       7       8       9      10
 ...................................................................................
   1  6999.00 6999.00 6999.00 6999.00 6999.00 6999.00 6999.00 6999.00 6999.00 6999.00
   2  6999.00 6999.00 6999.00 6999.00 6999.00 6999.00 6999.00 6999.00 6999.00 6999.00
   3  6999.00 6999.00 6999.00 6999.00 6999.00 6999.00 6999.00 6999.00 6999.00 6999.00
   4  6999.00 6999.00 6999.00 6999.00 1074.50 6999.00 6999.00 6999.00 6999.00 6999.00
   5  6999.00 6999.00 6999.00 6999.00 6999.00 6999.00 6999.00 6999.00 6999.00 6999.00
   6  6999.00 6999.00 6999.00 6999.00 6999.00 6999.00 6999.00 6999.00 6999.00 6999.00
   7  6999.00 6999.00 6999.00 6999.00 6999.00 6999.00 6999.00 6999.00 6999.00 6999.00
   8  6999.00 6999.00 6999.00 6999.00 6999.00 6999.00 6999.00 6999.00 6999.00 6999.00
   9  6999.00 6999.00 6999.00 6999.00 6999.00 6999.00 6999.00 6999.00 6999.00 6999.00
  10  6999.00 6999.00 6999.00 6999.00 6999.00 6999.00 6999.00 6999.00 6999.00 6999.00
  11  6999.00 6999.00 6999.00 6999.00 6999.00 6999.00 6999.00 6999.00 6999.00 6999.00
  12  6999.00 6999.00 6999.00 6999.00 6999.00 6999.00 6999.00 6999.00 6999.00 6999.00
  13  6999.00 6999.00 6999.00 6999.00 6999.00 6999.00 6999.00 6999.00 6999.00 6999.00
  14  6999.00 6999.00 6999.00 6999.00 6999.00 6999.00 6999.00 6999.00 6999.00 6999.00
  15  6999.00 6999.00 6999.00 6999.00 6999.00 6999.00 6999.00 6999.00 6999.00 6999.00
1
              HEAD IN LAYER 2 AT END OF TIME STEP 15 IN STRESS PERIOD 7
  ---------------------------------------------------------------------------

           1       2       3       4       5       6       7       8       9      10
 ...................................................................................
   1  1093.62 1087.67 6999.00 6999.00 6999.00 6999.00 6999.00 6999.00 6999.00 6999.00
   2  1087.24 1086.45 1077.78 6999.00 6999.00 1067.36 1066.84 1064.93 6999.00 6999.00
   3  6999.00 1073.64 1073.63 1069.81 1068.03 1066.53 1065.48 1063.51 6999.00 6999.00
   4  1061.50 1062.45 1062.98 1060.85 1059.13 1057.86 1057.07 1059.64 1057.97 6999.00
   5  1057.62 1054.83 1053.57 1053.17 1053.19 1053.51 1051.87 1052.43 1055.40 1057.60
   6  1053.50 1049.52 1047.35 1046.68 1047.28 1049.30 1048.99 1050.18 1052.30 1057.19
   7  1050.56 1044.66 1042.23 1041.43 1042.44 1045.12 1045.69 1047.02 1049.02 6999.00
   8  6999.00 1039.19 1037.53 1036.84 1037.95 1040.85 1041.45 1043.31 1045.27 6999.00
   9  6999.00 1033.42 1032.52 1032.19 1033.41 1036.27 1037.04 1037.67 1040.65 6999.00
  10  6999.00 1027.48 1027.37 1027.81 1029.29 1031.91 1034.21 1034.10 1036.98 1040.23
  11  6999.00 1019.74 1020.82 1023.77 1025.99 1028.76 1031.75 1032.03 1035.06 6999.00
  12  1003.20 1009.86 1014.09 1018.63 1022.42 1026.27 1029.56 1031.31 1034.69 6999.00
  13   996.22 1001.10 1007.66 1013.73 1019.46 1025.08 1029.49 1034.19 1036.74 6999.00
  14  6999.00 1006.98 1010.97 1015.90 1021.03 1025.99 1030.43 1035.25 1039.36 6999.00
  15  6999.00 6999.00 1018.42 1021.24 1024.89 1027.97 6999.00 6999.00 6999.00 6999.00

 HEAD WILL BE SAVED ON UNIT   58 AT END OF TIME STEP   15, STRESS PERIOD    7
1
  VOLUMETRIC BUDGET FOR ENTIRE MODEL AT END OF TIME STEP   15, STRESS PERIOD   7
  ------------------------------------------------------------------------------

     CUMULATIVE VOLUMES      L**3       RATES FOR THIS TIME STEP      L**3/T
     ------------------                 ------------------------

           IN:                                      IN:
           ---                                      ---
             STORAGE     =   154112768.0000               STORAGE     =           7.4159
       CONSTANT HEAD     =           0.0000         CONSTANT HEAD     =           0.0000
               WELLS     =           0.0000                 WELLS     =           0.0000
     HEAD DEP BOUNDS     =     3945580.2500       HEAD DEP BOUNDS     =           0.2143
      STREAM LEAKAGE     =  1359315712.0000        STREAM LEAKAGE     =          78.4941
       LAKE  SEEPAGE     =           0.0000         LAKE  SEEPAGE     =           0.0000
        UZF RECHARGE     =   645325632.0000          UZF RECHARGE     =          11.8538
               GW ET     =           0.0000                 GW ET     =           0.0000
     SURFACE LEAKAGE     =           0.0000       SURFACE LEAKAGE     =           0.0000

                TOTAL IN =  2162699776.0000                  TOTAL IN =          97.9780

          OUT:                                     OUT:
          ----                                     ----
             STORAGE     =  1216295936.0000               STORAGE     =          41.8315
       CONSTANT HEAD     =           0.0000         CONSTANT HEAD     =           0.0000
               WELLS     =   289080000.0000                 WELLS     =          20.0000
     HEAD DEP BOUNDS     =     5543373.0000       HEAD DEP BOUNDS     =           0.3125
      STREAM LEAKAGE     =   334754560.0000        STREAM LEAKAGE     =          18.2700
       LAKE  SEEPAGE     =           0.0000         LAKE  SEEPAGE     =           0.0000
        UZF RECHARGE     =           0.0000          UZF RECHARGE     =           0.0000
               GW ET     =   247543264.0000                 GW ET     =          16.4677
     SURFACE LEAKAGE     =    69461768.0000       SURFACE LEAKAGE     =           1.0965

               TOTAL OUT =  2162679040.0000                 TOTAL OUT =          97.9782

                IN - OUT =       20736.0000                  IN - OUT =      -1.9836E-04

     PERCENT DISCREPANCY =           0.00         PERCENT DISCREPANCY =          -0.00






         TIME SUMMARY AT END OF TIME STEP   15 IN STRESS PERIOD    7
                    SECONDS     MINUTES      HOURS       DAYS        YEARS
                    -----------------------------------------------------------
   TIME STEP LENGTH 1.75200E+05  2920.0      48.667      2.0278     5.55175E-03
 STRESS PERIOD TIME 2.62800E+06  43800.      730.00      30.417     8.32763E-02
         TOTAL TIME 1.83960E+07 3.06600E+05  5110.0      212.92     0.58293    
1
1
                            STRESS PERIOD NO.    8, LENGTH =   2628000.    
                            -----------------------------------------------

                              NUMBER OF TIME STEPS =    15

                               MULTIPLIER FOR DELT =     1.000

                            INITIAL TIME STEP SIZE =   175200.0    

      0 WELLS

 REUSING NON-PARAMETER GHB CELLS FROM LAST STRESS PERIOD

      2 GHB CELLS

 REUSING STREAM SEGMENT DATA FROM LAST STRESS PERIOD



            AREAL INFILTRATION RATE
 READING ON UNIT   19 WITH FORMAT: (10F4.0)            

            1           2           3           4           5           6           7           8           9          10
 ........................................................................................................................
   1   5.0000E-09  1.0000E-08   0.000       0.000       0.000       0.000       0.000       0.000       0.000       0.000    
   2   1.0000E-08  5.0000E-09  1.0000E-08   0.000       0.000      4.0000E-08  4.0000E-08  2.5000E-08   0.000       0.000    
   3    0.000      2.5000E-08  5.0000E-09  5.0000E-09  4.0000E-08  4.0000E-08  2.5000E-08  2.5000E-08   0.000       0.000    
   4   4.0000E-08  2.5000E-08  5.0000E-09  5.0000E-09  5.0000E-09  5.0000E-09  5.0000E-09  5.0000E-09  1.0000E-08   0.000    
   5   4.0000E-08  2.5000E-08  5.0000E-09  5.0000E-09  5.0000E-09  5.0000E-09  5.0000E-09  5.0000E-09  5.0000E-09  5.0000E-09
   6   4.0000E-08  2.5000E-08  2.5000E-08  1.0000E-08  1.0000E-08  5.0000E-09  5.0000E-09  5.0000E-09  5.0000E-09  2.5000E-08
   7   4.0000E-08  2.5000E-08  2.5000E-08  1.0000E-08  1.0000E-08  5.0000E-09  5.0000E-09  1.0000E-08  1.0000E-08   0.000    
   8    0.000      2.5000E-08  2.5000E-08  1.0000E-08  1.0000E-08  5.0000E-09  5.0000E-09  1.0000E-08  2.5000E-08   0.000    
   9    0.000      2.5000E-08  2.5000E-08  1.0000E-08  1.0000E-08  5.0000E-09  5.0000E-09  1.0000E-08  2.5000E-08   0.000    
  10    0.000      2.5000E-08  2.5000E-08  1.0000E-08  1.0000E-08  5.0000E-09  5.0000E-09  1.0000E-08  2.5000E-08  4.0000E-08
  11    0.000      5.0000E-09  5.0000E-09  5.0000E-09  5.0000E-09  5.0000E-09  5.0000E-09  1.0000E-08  2.5000E-08   0.000    
  12   5.0000E-09  5.0000E-09  5.0000E-09  5.0000E-09  5.0000E-09  5.0000E-09  5.0000E-09  5.0000E-09  1.0000E-08   0.000    
  13   5.0000E-09  5.0000E-09  1.0000E-08  1.0000E-08  1.0000E-08  1.0000E-08  1.0000E-08  5.0000E-09  5.0000E-09   0.000    
  14    0.000      1.0000E-08  2.5000E-08  2.5000E-08  2.5000E-08  2.5000E-08  2.5000E-08  1.0000E-08  5.0000E-09   0.000    
  15    0.000       0.000      4.0000E-08  4.0000E-08  4.0000E-08  4.0000E-08   0.000       0.000       0.000       0.000    

USING ET RATE FROM PREVIOUS STRESS PERIOD. CURRENT PERIOD IS:       8

 USING ET EXTINCTION DEPTH FROM PREVIOUS STRESS PERIOD. CURRENT PERIOD IS:       8

 USING EXTINCTION WATER CONTENT FROM PREVIOUS STRESS PERIOD. CURRENT PERIOD IS:       8




 If any subsequent steady-state stress periods, min. and max. stages for each lake will be read in Record 9a.




 REUSING LAKE CONFIGURATION DATA FROM LAST STRESS PERIOD


 LAKE       PRECIP     EVAP     RUNOFF   WITHDRAW   BOTTOM     AREA
----------------------------------------------------------------------
   1     0.000E+00 4.000E-08 0.000E+00  0.000E+00 1.074E+03 2.500E+07




         C               INTERFACE CONDUCTANCES BETWEEN LAKE AND AQUIFER CELLS
   L     O          (IF TYPE = 6, CONDUCTANCE (L^2/T) IS BETWEEN AQUIFER CELL AND OVERLYING LAKE CELL.)
   A     L  L  T    (IF TYPE = 1 TO 4, CONDUCTANCES ARE PER UNIT SATURATED THICKNESS (L/T).)
   Y  R  U  A  Y
   E  O  M  K  P                        LAKEBED      C O N D U C T A N C E S
   R  W  N  E  E     DELTA Y   DELTA X  LEAKANCE   LAKEBED   AQUIFER  COMBINED
 _______________________________________________________________________________
   1  4  4  1  2    5.00E+03  5.00E+03  5.00E-02  2.50E+02  6.00E-03  6.00E-03
   1  3  5  1  3    5.00E+03  5.00E+03  5.00E-02  2.50E+02  1.20E-03  1.20E-03
   2  4  5  1  6    5.00E+03  5.00E+03  5.00E-02  1.25E+06  9.42E+00  9.42E+00
   1  5  5  1  4    5.00E+03  5.00E+03  5.00E-02  2.50E+02  6.00E-03  6.00E-03
   1  4  6  1  1    5.00E+03  5.00E+03  5.00E-02  2.50E+02  6.00E-03  6.00E-03
 
      DEAD POOL STORAGE FOR LAKE    1 BELOW SEGMENT   10 IS EQUAL TO     0.1200000000E+09
 
      LAKE     INFLOWING STREAM SEGMENT
         1                  9

 MAXIMUM NUMBER OF STREAMS INFLOWING TO A LAKE IS    1

      LAKE     OUTFLOWING STREAM SEGMENT
         1                 10

 MAXIMUM NUMBER OF STREAMS OUTFLOWING FROM A LAKE IS    1

 
 SOLVING FOR HEAD 
                                                   Max.-Head-Change                         Max.-Flux-Residual
  Residual-Control   Outer-Iter.   Inner-Iter.     Column Row Layer    Maximum-Head-Change  Column Row Layer    Maximum-Flux-Residual          L2-NORM 
          0                 1           2             4    6     2       0.1108039801E+00       4    6    2         0.3029334402E+01      0.1028273564E+02
          0                 2           2             5   10     2      -0.6642484434E-02       5   10    2        -0.1969552701E+00      0.5738659391E+00
          0                 3           1             5   10     2       0.2495558832E-03       5   10    2         0.7874088300E-02      0.1937917097E-01

    ------------------------------------------------
       NWT REQUIRED            3 OUTER ITERATIONS 
       AND A TOTAL OF          5 INNER ITERATIONS.
    ------------------------------------------------

 NO OUTPUT CONTROL FOR STRESS PERIOD    8   TIME STEP    1
 
 SOLVING FOR HEAD 
                                                   Max.-Head-Change                         Max.-Flux-Residual
  Residual-Control   Outer-Iter.   Inner-Iter.     Column Row Layer    Maximum-Head-Change  Column Row Layer    Maximum-Flux-Residual          L2-NORM 
          0                 1           2             3    3     2       0.1458913833E+00       3    3    2         0.3909942684E+01      0.1287488465E+02
          0                 2           2             3    3     2      -0.1387279465E-01       3    3    2        -0.3921363475E+00      0.9345183988E+00
          0                 3           1             3    3     2       0.7774852256E-03       3    3    2         0.2302760592E-01      0.4422795854E-01

    ------------------------------------------------
       NWT REQUIRED            3 OUTER ITERATIONS 
       AND A TOTAL OF          5 INNER ITERATIONS.
    ------------------------------------------------

 NO OUTPUT CONTROL FOR STRESS PERIOD    8   TIME STEP    2
 
 SOLVING FOR HEAD 
                                                   Max.-Head-Change                         Max.-Flux-Residual
  Residual-Control   Outer-Iter.   Inner-Iter.     Column Row Layer    Maximum-Head-Change  Column Row Layer    Maximum-Flux-Residual          L2-NORM 
          0                 1           2             3    3     2       0.3577207135E+00       3    3    2         0.9714368069E+01      0.2596026975E+02
          0                 2           2             3    3     2      -0.3366673398E-01       5   13    2        -0.1191895435E+01      0.2649530058E+01
          0                 3           2             3    3     2       0.1880855418E-02       3    3    2         0.5555753222E-01      0.1266318747E+00
          0                 4           1             3    3     2      -0.3592508250E-04       3    3    2        -0.1104053288E-02      0.2313406029E-02

    ------------------------------------------------
       NWT REQUIRED            4 OUTER ITERATIONS 
       AND A TOTAL OF          7 INNER ITERATIONS.
    ------------------------------------------------

 NO OUTPUT CONTROL FOR STRESS PERIOD    8   TIME STEP    3
 
 SOLVING FOR HEAD 
                                                   Max.-Head-Change                         Max.-Flux-Residual
  Residual-Control   Outer-Iter.   Inner-Iter.     Column Row Layer    Maximum-Head-Change  Column Row Layer    Maximum-Flux-Residual          L2-NORM 
          0                 1           2             3    3     2       0.3435009468E+00       3    3    2         0.9317603726E+01      0.2278325538E+02
          0                 2           2             3    3     2      -0.3234781646E-01       3    3    2        -0.9162392662E+00      0.2057849074E+01
          0                 3           2             4   13     2      -0.3477462042E-02       4   13    2        -0.8153753485E-01      0.1336755832E+00
          0                 4           1             4   13     2       0.1825472277E-03       4   13    2         0.4395308377E-02      0.5174735949E-02

    ------------------------------------------------
       NWT REQUIRED            4 OUTER ITERATIONS 
       AND A TOTAL OF          7 INNER ITERATIONS.
    ------------------------------------------------

 NO OUTPUT CONTROL FOR STRESS PERIOD    8   TIME STEP    4
 
 SOLVING FOR HEAD 
                                                   Max.-Head-Change                         Max.-Flux-Residual
  Residual-Control   Outer-Iter.   Inner-Iter.     Column Row Layer    Maximum-Head-Change  Column Row Layer    Maximum-Flux-Residual          L2-NORM 
          0                 1           2             3    3     2       0.3301218870E+00       3    3    2         0.8945119283E+01      0.2047344607E+02
          0                 2           2             3    3     2      -0.3110963637E-01       3    3    2        -0.8806148563E+00      0.1727863536E+01
          0                 3           2             3    3     2       0.1743160599E-02       3    3    2         0.5148767708E-01      0.9090552792E-01
          0                 4           1             3    3     2      -0.3368031871E-04       3    3    2        -0.1036057048E-02      0.1864473133E-02

    ------------------------------------------------
       NWT REQUIRED            4 OUTER ITERATIONS 
       AND A TOTAL OF          7 INNER ITERATIONS.
    ------------------------------------------------

 OUTPUT CONTROL FOR STRESS PERIOD    8   TIME STEP    5
    PRINT BUDGET
    SAVE BUDGET

  HEAD DEP BOUNDS   PERIOD    8   STEP     5
 BOUNDARY      1   LAYER   2   ROW    13   COL     1   RATE   -0.325150    
 BOUNDARY      2   LAYER   2   ROW    14   COL     9   RATE    0.214253    



 STREAM LISTING     PERIOD      8   STEP        5

 LAYER ROW COL. STREAM  RCH.  FLOW INTO     FLOW TO   FLOW OUT OF   OVRLND.     DIRECT     STREAM       STREAM     STREAM     STREAM   STREAMBED  STREAMBED
                SEG.NO.  NO.  STRM. RCH.    AQUIFER    STRM. RCH.    RUNOFF     PRECIP       ET          HEAD       DEPTH      WIDTH   CONDCTNC.   GRADIENT

   2    1    1     1     1    6.2700E+02  5.2907E+00   6.2171E+02  0.000E+00  0.000E+00  0.000E+00  1.09661E+03  3.562E+00  4.381E+01  1.971E+00  8.946E-01
   2    2    2     1     2    6.2171E+02  1.3414E+01   6.0830E+02  0.000E+00  0.000E+00  0.000E+00  1.09160E+03  3.542E+00  4.356E+01  3.049E+00  1.466E+00
   2    3    3     1     3    6.0830E+02  1.6853E+01   5.9144E+02  0.000E+00  0.000E+00  0.000E+00  1.08593E+03  3.509E+00  4.315E+01  2.589E+00  2.170E+00
   2    3    4     1     4    5.9144E+02  1.5346E+01   5.7610E+02  0.000E+00  0.000E+00  0.000E+00  1.08088E+03  3.473E+00  4.271E+01  2.371E+00  2.158E+00
   2    4    5     2     1    5.6610E+02  0.0000E+00   5.6610E+02  0.000E+00  0.000E+00  0.000E+00  1.07978E+03  7.850E+00  1.200E+01  0.000E+00  3.617E+00
   2    5    6     2     2    5.6610E+02  6.4939E+00   5.5960E+02  0.000E+00  0.000E+00  0.000E+00  1.07433E+03  7.823E+00  1.200E+01  6.000E-01  3.608E+00
   2    6    6     2     3    5.5960E+02  6.4614E+00   5.5314E+02  0.000E+00  0.000E+00  0.000E+00  1.06956E+03  7.769E+00  1.200E+01  6.000E-01  3.590E+00
   2    7    6     2     4    5.5314E+02  6.4289E+00   5.4671E+02  0.000E+00  0.000E+00  0.000E+00  1.06479E+03  7.715E+00  1.200E+01  6.000E-01  3.572E+00
   2    8    6     2     5    5.4671E+02  6.3964E+00   5.4032E+02  0.000E+00  0.000E+00  0.000E+00  1.06002E+03  7.661E+00  1.200E+01  6.000E-01  3.554E+00
   2    3    5     3     1    1.0000E+01  2.8252E+00   7.1748E+00  0.000E+00  0.000E+00  0.000E+00  1.07555E+03  1.909E+00  9.636E+00  7.227E-01  1.955E+00
   2    3    6     3     2    7.1748E+00  2.4905E+00   4.6843E+00  0.000E+00  0.000E+00  0.000E+00  1.07264E+03  1.727E+00  8.909E+00  6.682E-01  1.864E+00
   2    3    7     3     3    4.6843E+00  1.9718E+00   2.7125E+00  0.000E+00  0.000E+00  0.000E+00  1.06987E+03  1.555E+00  8.218E+00  5.547E-01  1.777E+00
   2    4    8     3     4    2.7125E+00  2.2567E+00   4.5579E-01  0.000E+00  0.000E+00  0.000E+00  1.06682E+03  1.364E+00  7.455E+00  6.709E-01  1.682E+00
   2    5    8     3     5    4.5579E-01  4.5579E-01   0.0000E+00  0.000E+00  0.000E+00  0.000E+00  1.06362E+03  0.000E+00  6.655E+00  4.991E-01  1.582E+00
   2    6    8     3     6    0.0000E+00  0.0000E+00   0.0000E+00  0.000E+00  0.000E+00  0.000E+00  1.06055E+03  0.000E+00  6.145E+00  1.844E-01  1.000E+00
   2    5   10     4     1    1.0000E+01  9.0525E-01   9.0947E+00  0.000E+00  0.000E+00  0.000E+00  1.07835E+03  6.210E-01  1.000E+01  2.500E-01  1.207E+00
   2    5    9     4     2    9.0947E+00  1.7835E+00   7.3113E+00  0.000E+00  0.000E+00  0.000E+00  1.07148E+03  5.670E-01  1.000E+01  5.000E-01  1.189E+00
   2    6    8     4     3    7.3113E+00  1.2257E+00   6.0855E+00  0.000E+00  0.000E+00  0.000E+00  1.06368E+03  5.021E-01  1.000E+01  3.500E-01  1.167E+00
   2    6    8     5     1    6.0855E+00  1.4716E+00   4.6139E+00  0.000E+00  0.000E+00  0.000E+00  1.05854E+03  5.396E-01  1.039E+01  4.158E-01  1.180E+00
   2    7    7     5     2    4.6139E+00  1.4897E+00   3.1242E+00  0.000E+00  0.000E+00  0.000E+00  1.05398E+03  4.817E-01  8.557E+00  4.279E-01  1.161E+00
   2    8    7     5     3    3.1242E+00  8.2855E-01   2.2957E+00  0.000E+00  0.000E+00  0.000E+00  1.04968E+03  4.253E-01  6.911E+00  2.419E-01  1.142E+00
   2    8    6     5     4    2.2957E+00  4.9455E-01   1.8011E+00  0.000E+00  0.000E+00  0.000E+00  1.04664E+03  3.856E-01  5.843E+00  1.461E-01  1.129E+00
   2    9    6     6     1    5.4212E+02  6.4241E+00   5.3569E+02  0.000E+00  0.000E+00  0.000E+00  1.05043E+03  7.707E+00  1.200E+01  6.000E-01  3.569E+00
   2   10    7     6     2    5.3569E+02  6.3911E+00   5.2930E+02  0.000E+00  0.000E+00  0.000E+00  1.04583E+03  7.652E+00  1.200E+01  6.000E-01  3.551E+00
   2   11    7     6     3    5.2930E+02  5.4994E+00   5.2380E+02  0.000E+00  0.000E+00  0.000E+00  1.04124E+03  7.600E+00  1.200E+01  6.000E-01  3.055E+00
   2   12    7     6     4    5.2380E+02  4.0997E+00   5.1970E+02  0.000E+00  0.000E+00  0.000E+00  1.03665E+03  7.559E+00  1.200E+01  6.000E-01  2.278E+00
   2   13    7     6     5    5.1970E+02  9.2648E-01   5.1878E+02  0.000E+00  0.000E+00  0.000E+00  1.03345E+03  7.537E+00  1.200E+01  2.400E-01  1.287E+00
   2   14    9     7     1    1.5000E+02  2.8107E+00   1.4719E+02  0.000E+00  0.000E+00  0.000E+00  1.03986E+03  2.284E+00  5.528E+01  5.591E+00  1.676E-01
   2   13    8     7     2    1.4719E+02  3.5195E+00   1.4367E+02  0.000E+00  0.000E+00  0.000E+00  1.03477E+03  2.267E+00  5.520E+01  6.141E+00  1.910E-01
   2   13    7     7     3    1.4367E+02  5.0104E-01   1.4317E+02  0.000E+00  0.000E+00  0.000E+00  1.02968E+03  2.256E+00  5.515E+01  5.577E+00  2.994E-02
   2   13    6     8     1    6.6194E+02  6.2905E+00   6.5778E+02  2.129E+00  0.000E+00  0.000E+00  1.02670E+03  4.822E+00  6.147E+01  6.294E+00  3.331E-01
   2   13    5     8     2    6.5778E+02  3.1043E+00   6.5681E+02  2.129E+00  0.000E+00  0.000E+00  1.02044E+03  4.815E+00  6.144E+01  6.291E+00  1.645E-01
   2   13    4     8     3    6.5681E+02  3.0355E-01   6.5863E+02  2.129E+00  0.000E+00  0.000E+00  1.01419E+03  4.816E+00  6.145E+01  6.292E+00  1.608E-02
   2   13    3     8     4    6.5863E+02 -3.6833E-01   6.6113E+02  2.129E+00  0.000E+00  0.000E+00  1.00795E+03  4.822E+00  6.147E+01  6.294E+00 -1.951E-02
   2   13    2     8     5    6.6113E+02  6.5258E-01   6.6261E+02  2.129E+00  0.000E+00  0.000E+00  1.00170E+03  4.827E+00  6.149E+01  6.297E+00  3.454E-02
   2   13    1     8     6    6.6261E+02  5.6134E-01   6.6332E+02  1.277E+00  0.000E+00  0.000E+00  9.96705E+02  4.830E+00  6.150E+01  3.779E+00  4.951E-02
   2    4    5     9     1    0.0000E+00  0.0000E+00   0.0000E+00  0.000E+00  0.000E+00  0.000E+00  1.06000E+03  0.000E+00  2.000E+01  2.000E-03  4.080E-01
   2    4    5    10     1    0.0000E+00  0.0000E+00   0.0000E+00  0.000E+00  0.000E+00  0.000E+00  1.08000E+03  0.000E+00  2.000E+01  2.000E-03  1.000E+00





     0  LAKE CELLS ARE DRY.

 PERIOD     8     TIME STEP     5     TIME STEP LENGTH  1.7520E+05
 PERIOD TIME  8.7600E+05     TOTAL SIMULATION TIME  1.9272E+07


                 HYDROLOGIC BUDGET SUMMARIES FOR SIMULATED LAKES
     (ALL FLUID FLUXES ARE VOLUMES ADDED TO THE LAKE DURING PRESENT TIME STEP)
     ----------------------------------------------------------------------------------------
 LAKE    STAGE         VOLUME     VOL. CHANGE      PRECIP     EVAPORATION    SPECIFIED RUNOFF     COMPUTED RUNOFF    TOTAL RUNOFF
   1  1.074501E+03  1.374331E+02 -1.752086E+01  0.000000E+00  1.517385E+01   0.000000E+00          0.000000E+00      0.000000E+00

            GROUND WATER            SURFACE WATER        WATER          UZF INFIL.
 LAKE    INFLOW     OUTFLOW      INFLOW     OUTFLOW       USE        FROM LAKE
   1  0.0000E+00  0.0000E+00  0.0000E+00  0.0000E+00  0.0000E+00       2.3470E+00

      CONNECTED LAKE   TIME-STEP         STAGE-CHANGE          PERCENT
 LAKE    INFLUX      SURFACE AREA   TIME STEP  CUMULATIVE    DISCREPANCY
   1   0.0000E+00     2.1652E+03  -1.5543E-04  8.2114E-04      -0.000
 --------------------------------------------------------------------------------



            CUMULATIVE HYDROLOGIC BUDGET SUMMARIES FOR SIMULATED LAKES
     (ALL FLUID FLUXES ARE SUMS OF VOLUMES ADDED TO THE LAKE SINCE INITIAL TIME)
     ---------------------------------------------------------------------------
 LAKE       PRECIP       EVAP     SPECIFIED RUNOFF   COMPUTED RUNOFF   TOTAL RUNOFF
   1     0.0000E+00  1.6031E+06       0.0000E+00       0.0000E+00       0.0000E+00

            GROUND WATER            SURFACE WATER       UZF INFIL.
 LAKE    INFLOW     OUTFLOW      INFLOW     OUTFLOW     FROM LAKE
   1  0.0000E+00  0.0000E+00  1.9325E+08  4.8785E+07    1.4286E+08

         WATER    CONNECTED LAKE   CHANGE       PERCENT
 LAKE     USE         INFLUX       IN VOL.    DISCREPANCY
   1   0.0000E+00   0.0000E+00   1.3743E+02     -0.000
 --------------------------------------------------------------------------------

 UBDSV3 SAVING "           GW ET" ON UNIT  61 AT TIME STEP 5, STRESS PERIOD 8
 UBDSV3 SAVING "    UZF RECHARGE" ON UNIT  61 AT TIME STEP 5, STRESS PERIOD 8
 UBDSV3 SAVING " SURFACE LEAKAGE" ON UNIT  61 AT TIME STEP 5, STRESS PERIOD 8


UNSATURATED ZONE PACKAGE VOLUMETRIC BUDGET FOR  TIME STEP     5 STRESS PERIOD    8
  ------------------------------------------------------------------------------



     CUMULATIVE VOLUMES      L**3       RATES FOR THIS TIME STEP      L**3/T
     ------------------                 ------------------------

           IN:                                      IN:
           ---                                      ---
        INFILTRATION =  1423330753.4936          INFILTRATION =          41.8442

          OUT:                                     OUT:
          ----                                     ----
              UZF ET =  1287673898.7289                UZF ET =          36.7231
        UZF RECHARGE =   656953922.4067          UZF RECHARGE =          13.1880

            IN - OUT =  -521297067.6421              IN - OUT =          -8.0670

          STORAGE:                                 STORAGE:
          --------                                 --------
      STORAGE CHANGE =  -520551338.9143        STORAGE CHANGE =          -8.0499

 PERCENT DISCREPANCY IS DIFFERENCE BETWEEN IN-OUT MINUS CHANGE IN STORAGE
 DIVIDED BY THE AVERAGE OF IN AND OUT TIMES 100

 PERCENT DISCREPANCY =          -0.01     PERCENT DISCREPANCY =          -0.03






1
  VOLUMETRIC BUDGET FOR ENTIRE MODEL AT END OF TIME STEP    5, STRESS PERIOD   8
  ------------------------------------------------------------------------------

     CUMULATIVE VOLUMES      L**3       RATES FOR THIS TIME STEP      L**3/T
     ------------------                 ------------------------

           IN:                                      IN:
           ---                                      ---
             STORAGE     =   157638160.0000               STORAGE     =           2.7122
       CONSTANT HEAD     =           0.0000         CONSTANT HEAD     =           0.0000
               WELLS     =           0.0000                 WELLS     =           0.0000
     HEAD DEP BOUNDS     =     4133263.5000       HEAD DEP BOUNDS     =           0.2143
      STREAM LEAKAGE     =  1463717504.0000        STREAM LEAKAGE     =         135.9674
       LAKE  SEEPAGE     =           0.0000         LAKE  SEEPAGE     =           0.0000
        UZF RECHARGE     =   656953792.0000          UZF RECHARGE     =          13.1880
               GW ET     =           0.0000                 GW ET     =           0.0000
     SURFACE LEAKAGE     =           0.0000       SURFACE LEAKAGE     =           0.0000

                TOTAL IN =  2282442752.0000                  TOTAL IN =         152.0818

          OUT:                                     OUT:
          ----                                     ----
             STORAGE     =  1310995072.0000               STORAGE     =         122.5492
       CONSTANT HEAD     =           0.0000         CONSTANT HEAD     =           0.0000
               WELLS     =   289080000.0000                 WELLS     =           0.0000
     HEAD DEP BOUNDS     =     5821741.5000       HEAD DEP BOUNDS     =           0.3251
      STREAM LEAKAGE     =   339800544.0000        STREAM LEAKAGE     =           0.3683
       LAKE  SEEPAGE     =           0.0000         LAKE  SEEPAGE     =           0.0000
        UZF RECHARGE     =           0.0000          UZF RECHARGE     =           0.0000
               GW ET     =   262332624.0000                 GW ET     =          17.3235
     SURFACE LEAKAGE     =    74392528.0000       SURFACE LEAKAGE     =          11.5157

               TOTAL OUT =  2282422528.0000                 TOTAL OUT =         152.0819

                IN - OUT =       20224.0000                  IN - OUT =      -7.6294E-05

     PERCENT DISCREPANCY =           0.00         PERCENT DISCREPANCY =          -0.00






         TIME SUMMARY AT END OF TIME STEP    5 IN STRESS PERIOD    8
                    SECONDS     MINUTES      HOURS       DAYS        YEARS
                    -----------------------------------------------------------
   TIME STEP LENGTH 1.75200E+05  2920.0      48.667      2.0278     5.55175E-03
 STRESS PERIOD TIME 8.76000E+05  14600.      243.33      10.139     2.77588E-02
         TOTAL TIME 1.92720E+07 3.21200E+05  5353.3      223.06     0.61069    
1
 
 SOLVING FOR HEAD 
                                                   Max.-Head-Change                         Max.-Flux-Residual
  Residual-Control   Outer-Iter.   Inner-Iter.     Column Row Layer    Maximum-Head-Change  Column Row Layer    Maximum-Flux-Residual          L2-NORM 
          0                 1           2             4   13     2      -0.1927247986E+00       4   13    2        -0.4395205129E+01      0.1259004136E+02
          0                 2           2             3   13     2       0.7750566730E-01       3   13    2         0.3561524671E+01      0.3865794117E+01
          0                 3           2             3   13     2      -0.5654660221E-02       3   13    2        -0.2839986826E+00      0.2987062918E+00
          0                 4           1             2   13     2      -0.1115728057E-03       3   13    2         0.4118999001E-02      0.6137311414E-02

    ------------------------------------------------
       NWT REQUIRED            4 OUTER ITERATIONS 
       AND A TOTAL OF          7 INNER ITERATIONS.
    ------------------------------------------------

 NO OUTPUT CONTROL FOR STRESS PERIOD    8   TIME STEP    6
 
 SOLVING FOR HEAD 
                                                   Max.-Head-Change                         Max.-Flux-Residual
  Residual-Control   Outer-Iter.   Inner-Iter.     Column Row Layer    Maximum-Head-Change  Column Row Layer    Maximum-Flux-Residual          L2-NORM 
          0                 1           2             3    2     2       0.1162707277E+00       3    2    2         0.3094141855E+01      0.1110071159E+02
          0                 2           2             3    3     2      -0.7993339563E-02       3    3    2        -0.2236461665E+00      0.7063625264E+00
          0                 3           1             3    3     2       0.4524861418E-03       3    3    2         0.1341452535E-01      0.2969949825E-01

    ------------------------------------------------
       NWT REQUIRED            3 OUTER ITERATIONS 
       AND A TOTAL OF          5 INNER ITERATIONS.
    ------------------------------------------------

 NO OUTPUT CONTROL FOR STRESS PERIOD    8   TIME STEP    7
 
 SOLVING FOR HEAD 
                                                   Max.-Head-Change                         Max.-Flux-Residual
  Residual-Control   Outer-Iter.   Inner-Iter.     Column Row Layer    Maximum-Head-Change  Column Row Layer    Maximum-Flux-Residual          L2-NORM 
          0                 1           2             3    2     2       0.1133287086E+00       3    2    2         0.3013899703E+01      0.1039425055E+02
          0                 2           2             3    3     2      -0.7884287170E-02       3    3    2        -0.2206789938E+00      0.6660979433E+00
          0                 3           1             3    3     2       0.4459975692E-03       3    3    2         0.1322130340E-01      0.2769159989E-01

    ------------------------------------------------
       NWT REQUIRED            3 OUTER ITERATIONS 
       AND A TOTAL OF          5 INNER ITERATIONS.
    ------------------------------------------------

 NO OUTPUT CONTROL FOR STRESS PERIOD    8   TIME STEP    8
 
 SOLVING FOR HEAD 
                                                   Max.-Head-Change                         Max.-Flux-Residual
  Residual-Control   Outer-Iter.   Inner-Iter.     Column Row Layer    Maximum-Head-Change  Column Row Layer    Maximum-Flux-Residual          L2-NORM 
          0                 1           2             3    2     2       0.1103511488E+00       3    2    2         0.2932961721E+01      0.9985098674E+01
          0                 2           2             3    3     2      -0.7769011474E-02       3    3    2        -0.2174918207E+00      0.6430622051E+00
          0                 3           1             3    3     2       0.4390911076E-03       3    3    2         0.1301889632E-01      0.2659359081E-01

    ------------------------------------------------
       NWT REQUIRED            3 OUTER ITERATIONS 
       AND A TOTAL OF          5 INNER ITERATIONS.
    ------------------------------------------------

 NO OUTPUT CONTROL FOR STRESS PERIOD    8   TIME STEP    9
 
 SOLVING FOR HEAD 
                                                   Max.-Head-Change                         Max.-Flux-Residual
  Residual-Control   Outer-Iter.   Inner-Iter.     Column Row Layer    Maximum-Head-Change  Column Row Layer    Maximum-Flux-Residual          L2-NORM 
          0                 1           2             3    2     2       0.1079070081E+00       3    2    2         0.2860632115E+01      0.9773098324E+01
          0                 2           2             3    3     2      -0.8265906029E-02       3    3    2        -0.2316514359E+00      0.6386113298E+00
          0                 3           1             3    3     2       0.4665400807E-03       3    3    2         0.1382443054E-01      0.2691771670E-01

    ------------------------------------------------
       NWT REQUIRED            3 OUTER ITERATIONS 
       AND A TOTAL OF          5 INNER ITERATIONS.
    ------------------------------------------------

 OUTPUT CONTROL FOR STRESS PERIOD    8   TIME STEP   10
    PRINT BUDGET
    SAVE BUDGET

  HEAD DEP BOUNDS   PERIOD    8   STEP    10
 BOUNDARY      1   LAYER   2   ROW    13   COL     1   RATE   -0.323199    
 BOUNDARY      2   LAYER   2   ROW    14   COL     9   RATE    0.214465    



 STREAM LISTING     PERIOD      8   STEP       10

 LAYER ROW COL. STREAM  RCH.  FLOW INTO     FLOW TO   FLOW OUT OF   OVRLND.     DIRECT     STREAM       STREAM     STREAM     STREAM   STREAMBED  STREAMBED
                SEG.NO.  NO.  STRM. RCH.    AQUIFER    STRM. RCH.    RUNOFF     PRECIP       ET          HEAD       DEPTH      WIDTH   CONDCTNC.   GRADIENT

   2    1    1     1     1    2.8645E+02  2.6016E+00   2.8385E+02  0.000E+00  0.000E+00  0.000E+00  1.09571E+03  2.660E+00  3.263E+01  1.468E+00  5.907E-01
   2    2    2     1     2    2.8385E+02  7.8047E+00   2.7604E+02  0.000E+00  0.000E+00  0.000E+00  1.09070E+03  2.641E+00  3.240E+01  2.268E+00  1.147E+00
   2    3    3     1     3    2.7604E+02  1.0765E+01   2.6528E+02  0.000E+00  0.000E+00  0.000E+00  1.08503E+03  2.608E+00  3.199E+01  1.919E+00  1.869E+00
   2    3    4     1     4    2.6528E+02  9.7491E+00   2.5553E+02  0.000E+00  0.000E+00  0.000E+00  1.07998E+03  2.571E+00  3.153E+01  1.750E+00  1.857E+00
   2    4    5     2     1    2.4553E+02  0.0000E+00   2.4553E+02  0.000E+00  0.000E+00  0.000E+00  1.07669E+03  4.756E+00  1.200E+01  0.000E+00  2.585E+00
   2    5    6     2     2    2.4553E+02  4.6371E+00   2.4089E+02  0.000E+00  0.000E+00  0.000E+00  1.07124E+03  4.729E+00  1.200E+01  6.000E-01  2.576E+00
   2    6    6     2     3    2.4089E+02  4.6047E+00   2.3628E+02  0.000E+00  0.000E+00  0.000E+00  1.06647E+03  4.674E+00  1.200E+01  6.000E-01  2.558E+00
   2    7    6     2     4    2.3628E+02  4.5722E+00   2.3171E+02  0.000E+00  0.000E+00  0.000E+00  1.06170E+03  4.620E+00  1.200E+01  6.000E-01  2.540E+00
   2    8    6     2     5    2.3171E+02  4.5397E+00   2.2717E+02  0.000E+00  0.000E+00  0.000E+00  1.05692E+03  4.566E+00  1.200E+01  6.000E-01  2.522E+00
   2    3    5     3     1    1.0000E+01  2.8252E+00   7.1748E+00  0.000E+00  0.000E+00  0.000E+00  1.07555E+03  1.909E+00  9.636E+00  7.227E-01  1.955E+00
   2    3    6     3     2    7.1748E+00  2.4905E+00   4.6843E+00  0.000E+00  0.000E+00  0.000E+00  1.07264E+03  1.727E+00  8.909E+00  6.682E-01  1.864E+00
   2    3    7     3     3    4.6843E+00  1.9718E+00   2.7125E+00  0.000E+00  0.000E+00  0.000E+00  1.06987E+03  1.555E+00  8.218E+00  5.547E-01  1.777E+00
   2    4    8     3     4    2.7125E+00  2.2567E+00   4.5579E-01  0.000E+00  0.000E+00  0.000E+00  1.06682E+03  1.364E+00  7.455E+00  6.709E-01  1.682E+00
   2    5    8     3     5    4.5579E-01  4.5579E-01   0.0000E+00  0.000E+00  0.000E+00  0.000E+00  1.06362E+03  0.000E+00  6.655E+00  4.991E-01  1.582E+00
   2    6    8     3     6    0.0000E+00  0.0000E+00   0.0000E+00  0.000E+00  0.000E+00  0.000E+00  1.06055E+03  0.000E+00  6.145E+00  1.844E-01  1.000E+00
   2    5   10     4     1    1.0000E+01  9.0525E-01   9.0947E+00  0.000E+00  0.000E+00  0.000E+00  1.07835E+03  6.210E-01  1.000E+01  2.500E-01  1.207E+00
   2    5    9     4     2    9.0947E+00  1.7835E+00   7.3113E+00  0.000E+00  0.000E+00  0.000E+00  1.07148E+03  5.670E-01  1.000E+01  5.000E-01  1.189E+00
   2    6    8     4     3    7.3113E+00  1.2257E+00   6.0855E+00  0.000E+00  0.000E+00  0.000E+00  1.06368E+03  5.021E-01  1.000E+01  3.500E-01  1.167E+00
   2    6    8     5     1    6.0855E+00  1.4716E+00   4.6139E+00  0.000E+00  0.000E+00  0.000E+00  1.05854E+03  5.396E-01  1.039E+01  4.158E-01  1.180E+00
   2    7    7     5     2    4.6139E+00  1.4897E+00   3.1242E+00  0.000E+00  0.000E+00  0.000E+00  1.05398E+03  4.817E-01  8.557E+00  4.279E-01  1.161E+00
   2    8    7     5     3    3.1242E+00  8.2855E-01   2.2957E+00  0.000E+00  0.000E+00  0.000E+00  1.04968E+03  4.253E-01  6.911E+00  2.419E-01  1.142E+00
   2    8    6     5     4    2.2957E+00  4.9455E-01   1.8011E+00  0.000E+00  0.000E+00  0.000E+00  1.04664E+03  3.856E-01  5.843E+00  1.461E-01  1.129E+00
   2    9    6     6     1    2.2897E+02  4.5504E+00   2.2442E+02  0.000E+00  0.000E+00  0.000E+00  1.04731E+03  4.584E+00  1.200E+01  6.000E-01  2.528E+00
   2   10    7     6     2    2.2442E+02  4.5172E+00   2.1991E+02  0.000E+00  0.000E+00  0.000E+00  1.04271E+03  4.529E+00  1.200E+01  6.000E-01  2.510E+00
   2   11    7     6     3    2.1991E+02  3.5657E+00   2.1634E+02  0.000E+00  0.000E+00  0.000E+00  1.03812E+03  4.479E+00  1.200E+01  6.000E-01  1.981E+00
   2   12    7     6     4    2.1634E+02  2.2090E+00   2.1413E+02  0.000E+00  0.000E+00  0.000E+00  1.03353E+03  4.443E+00  1.200E+01  6.000E-01  1.227E+00
   2   13    7     6     5    2.1413E+02  1.8077E-01   2.1395E+02  0.000E+00  0.000E+00  0.000E+00  1.03034E+03  4.429E+00  1.200E+01  2.400E-01  2.511E-01
   2   14    9     7     1    1.5000E+02  2.8415E+00   1.4716E+02  0.000E+00  0.000E+00  0.000E+00  1.03986E+03  2.284E+00  5.528E+01  5.591E+00  1.694E-01
   2   13    8     7     2    1.4716E+02  3.5241E+00   1.4363E+02  0.000E+00  0.000E+00  0.000E+00  1.03477E+03  2.267E+00  5.520E+01  6.141E+00  1.913E-01
   2   13    7     7     3    1.4363E+02  5.0617E-01   1.4313E+02  0.000E+00  0.000E+00  0.000E+00  1.02968E+03  2.256E+00  5.515E+01  5.577E+00  3.025E-02
   2   13    6     8     1    3.5708E+02  1.4847E+00   3.5647E+02  8.707E-01  0.000E+00  0.000E+00  1.02577E+03  3.898E+00  5.653E+01  5.760E+00  8.592E-02
   2   13    5     8     2    3.5647E+02 -1.3972E+00   3.5873E+02  8.707E-01  0.000E+00  0.000E+00  1.01953E+03  3.902E+00  5.657E+01  5.765E+00 -8.078E-02
   2   13    4     8     3    3.5873E+02 -3.5657E+00   3.6317E+02  8.707E-01  0.000E+00  0.000E+00  1.01329E+03  3.915E+00  5.677E+01  5.785E+00 -2.054E-01
   2   13    3     8     4    3.6317E+02 -4.5003E+00   3.6854E+02  8.707E-01  0.000E+00  0.000E+00  1.00706E+03  3.935E+00  5.706E+01  5.815E+00 -2.580E-01
   2   13    2     8     5    3.6854E+02 -3.5605E+00   3.7297E+02  8.707E-01  0.000E+00  0.000E+00  1.00083E+03  3.955E+00  5.735E+01  5.844E+00 -2.031E-01
   2   13    1     8     6    3.7297E+02 -2.3255E+00   3.7582E+02  5.224E-01  0.000E+00  0.000E+00  9.95844E+02  3.969E+00  5.756E+01  3.519E+00 -2.203E-01
   2    4    5     9     1    0.0000E+00  0.0000E+00   0.0000E+00  0.000E+00  0.000E+00  0.000E+00  1.06000E+03  0.000E+00  2.000E+01  2.000E-03  4.685E-01
   2    4    5    10     1    0.0000E+00  0.0000E+00   0.0000E+00  0.000E+00  0.000E+00  0.000E+00  1.08000E+03  0.000E+00  2.000E+01  2.000E-03  1.000E+00





     0  LAKE CELLS ARE DRY.

 PERIOD     8     TIME STEP    10     TIME STEP LENGTH  1.7520E+05
 PERIOD TIME  1.7520E+06     TOTAL SIMULATION TIME  2.0148E+07


                 HYDROLOGIC BUDGET SUMMARIES FOR SIMULATED LAKES
     (ALL FLUID FLUXES ARE VOLUMES ADDED TO THE LAKE DURING PRESENT TIME STEP)
     ----------------------------------------------------------------------------------------
 LAKE    STAGE         VOLUME     VOL. CHANGE      PRECIP     EVAPORATION    SPECIFIED RUNOFF     COMPUTED RUNOFF    TOTAL RUNOFF
   1  1.074500E+03  7.708948E+01 -9.247467E+00  0.000000E+00  8.511376E+00   0.000000E+00          0.000000E+00      0.000000E+00

            GROUND WATER            SURFACE WATER        WATER          UZF INFIL.
 LAKE    INFLOW     OUTFLOW      INFLOW     OUTFLOW       USE        FROM LAKE
   1  0.0000E+00  0.0000E+00  0.0000E+00  0.0000E+00  0.0000E+00       7.3608E-01

      CONNECTED LAKE   TIME-STEP         STAGE-CHANGE          PERCENT
 LAKE    INFLUX      SURFACE AREA   TIME STEP  CUMULATIVE    DISCREPANCY
   1   0.0000E+00     1.2145E+03  -2.7686E-05  4.6060E-04       0.000
 --------------------------------------------------------------------------------



            CUMULATIVE HYDROLOGIC BUDGET SUMMARIES FOR SIMULATED LAKES
     (ALL FLUID FLUXES ARE SUMS OF VOLUMES ADDED TO THE LAKE SINCE INITIAL TIME)
     ---------------------------------------------------------------------------
 LAKE       PRECIP       EVAP     SPECIFIED RUNOFF   COMPUTED RUNOFF   TOTAL RUNOFF
   1     0.0000E+00  1.6032E+06       0.0000E+00       0.0000E+00       0.0000E+00

            GROUND WATER            SURFACE WATER       UZF INFIL.
 LAKE    INFLOW     OUTFLOW      INFLOW     OUTFLOW     FROM LAKE
   1  0.0000E+00  0.0000E+00  1.9325E+08  4.8785E+07    1.4286E+08

         WATER    CONNECTED LAKE   CHANGE       PERCENT
 LAKE     USE         INFLUX       IN VOL.    DISCREPANCY
   1   0.0000E+00   0.0000E+00   7.7089E+01     -0.000
 --------------------------------------------------------------------------------

 UBDSV3 SAVING "           GW ET" ON UNIT  61 AT TIME STEP 10, STRESS PERIOD 8
 UBDSV3 SAVING "    UZF RECHARGE" ON UNIT  61 AT TIME STEP 10, STRESS PERIOD 8
 UBDSV3 SAVING " SURFACE LEAKAGE" ON UNIT  61 AT TIME STEP 10, STRESS PERIOD 8


UNSATURATED ZONE PACKAGE VOLUMETRIC BUDGET FOR  TIME STEP    10 STRESS PERIOD    8
  ------------------------------------------------------------------------------



     CUMULATIVE VOLUMES      L**3       RATES FOR THIS TIME STEP      L**3/T
     ------------------                 ------------------------

           IN:                                      IN:
           ---                                      ---
        INFILTRATION =  1460091942.5934          INFILTRATION =          41.9969

          OUT:                                     OUT:
          ----                                     ----
              UZF ET =  1315603115.1196                UZF ET =          31.4886
        UZF RECHARGE =   666916317.4426          UZF RECHARGE =          10.8547

            IN - OUT =  -522427489.9688              IN - OUT =          -0.3464

          STORAGE:                                 STORAGE:
          --------                                 --------
      STORAGE CHANGE =  -521675423.7899        STORAGE CHANGE =          -0.3422

 PERCENT DISCREPANCY IS DIFFERENCE BETWEEN IN-OUT MINUS CHANGE IN STORAGE
 DIVIDED BY THE AVERAGE OF IN AND OUT TIMES 100

 PERCENT DISCREPANCY =          -0.01     PERCENT DISCREPANCY =          -0.01






1
  VOLUMETRIC BUDGET FOR ENTIRE MODEL AT END OF TIME STEP   10, STRESS PERIOD   8
  ------------------------------------------------------------------------------

     CUMULATIVE VOLUMES      L**3       RATES FOR THIS TIME STEP      L**3/T
     ------------------                 ------------------------

           IN:                                      IN:
           ---                                      ---
             STORAGE     =   163631024.0000               STORAGE     =           3.8822
       CONSTANT HEAD     =           0.0000         CONSTANT HEAD     =           0.0000
               WELLS     =           0.0000                 WELLS     =           0.0000
     HEAD DEP BOUNDS     =     4321043.0000       HEAD DEP BOUNDS     =           0.2145
      STREAM LEAKAGE     =  1543517056.0000        STREAM LEAKAGE     =          90.8528
       LAKE  SEEPAGE     =           0.0000         LAKE  SEEPAGE     =           0.0000
        UZF RECHARGE     =   666916160.0000          UZF RECHARGE     =          10.8547
               GW ET     =           0.0000                 GW ET     =           0.0000
     SURFACE LEAKAGE     =           0.0000       SURFACE LEAKAGE     =           0.0000

                TOTAL IN =  2378385152.0000                  TOTAL IN =         105.8042

          OUT:                                     OUT:
          ----                                     ----
             STORAGE     =  1371960704.0000               STORAGE     =          67.4050
       CONSTANT HEAD     =           0.0000         CONSTANT HEAD     =           0.0000
               WELLS     =   289080000.0000                 WELLS     =           0.0000
     HEAD DEP BOUNDS     =     6105629.0000       HEAD DEP BOUNDS     =           0.3232
      STREAM LEAKAGE     =   353826720.0000        STREAM LEAKAGE     =          15.3491
       LAKE  SEEPAGE     =           0.0000         LAKE  SEEPAGE     =           0.0000
        UZF RECHARGE     =           0.0000          UZF RECHARGE     =           0.0000
               GW ET     =   277946816.0000                 GW ET     =          18.1059
     SURFACE LEAKAGE     =    79445584.0000       SURFACE LEAKAGE     =           4.6218

               TOTAL OUT =  2378365184.0000                 TOTAL OUT =         105.8050

                IN - OUT =       19968.0000                  IN - OUT =      -7.9346E-04

     PERCENT DISCREPANCY =           0.00         PERCENT DISCREPANCY =          -0.00






         TIME SUMMARY AT END OF TIME STEP   10 IN STRESS PERIOD    8
                    SECONDS     MINUTES      HOURS       DAYS        YEARS
                    -----------------------------------------------------------
   TIME STEP LENGTH 1.75200E+05  2920.0      48.667      2.0278     5.55175E-03
 STRESS PERIOD TIME 1.75200E+06  29200.      486.67      20.278     5.55175E-02
         TOTAL TIME 2.01480E+07 3.35800E+05  5596.7      233.19     0.63845    
1
 
 SOLVING FOR HEAD 
                                                   Max.-Head-Change                         Max.-Flux-Residual
  Residual-Control   Outer-Iter.   Inner-Iter.     Column Row Layer    Maximum-Head-Change  Column Row Layer    Maximum-Flux-Residual          L2-NORM 
          0                 1           2             3    2     2       0.1056016249E+00       3    2    2         0.2797279164E+01      0.9608217325E+01
          0                 2           2             3    3     2      -0.8246907842E-02       3    3    2        -0.2311941235E+00      0.6336530225E+00
          0                 3           1             3    3     2       0.4651498549E-03       3    3    2         0.1378333260E-01      0.2683651298E-01

    ------------------------------------------------
       NWT REQUIRED            3 OUTER ITERATIONS 
       AND A TOTAL OF          5 INNER ITERATIONS.
    ------------------------------------------------

 NO OUTPUT CONTROL FOR STRESS PERIOD    8   TIME STEP   11
 
 SOLVING FOR HEAD 
                                                   Max.-Head-Change                         Max.-Flux-Residual
  Residual-Control   Outer-Iter.   Inner-Iter.     Column Row Layer    Maximum-Head-Change  Column Row Layer    Maximum-Flux-Residual          L2-NORM 
          0                 1           2             3    2     2       0.1033874157E+00       3    2    2         0.2737523749E+01      0.9459971473E+01
          0                 2           2             3    3     2      -0.8122969327E-02       3    3    2        -0.2277349520E+00      0.6263793147E+00
          0                 3           1             3    3     2       0.4578866126E-03       3    3    2         0.1356807156E-01      0.2667289652E-01

    ------------------------------------------------
       NWT REQUIRED            3 OUTER ITERATIONS 
       AND A TOTAL OF          5 INNER ITERATIONS.
    ------------------------------------------------

 NO OUTPUT CONTROL FOR STRESS PERIOD    8   TIME STEP   12
 
 SOLVING FOR HEAD 
                                                   Max.-Head-Change                         Max.-Flux-Residual
  Residual-Control   Outer-Iter.   Inner-Iter.     Column Row Layer    Maximum-Head-Change  Column Row Layer    Maximum-Flux-Residual          L2-NORM 
          0                 1           2             3    2     2       0.1001525238E+00       3    2    2         0.2675760198E+01      0.9090077850E+01
          0                 2           2             3    3     2      -0.5381460191E-02       3    3    2        -0.1498122527E+00      0.5810828091E+00
          0                 3           1             3    3     2       0.3041441922E-03       3    3    2         0.9026023787E-02      0.2309078430E-01

    ------------------------------------------------
       NWT REQUIRED            3 OUTER ITERATIONS 
       AND A TOTAL OF          5 INNER ITERATIONS.
    ------------------------------------------------

 NO OUTPUT CONTROL FOR STRESS PERIOD    8   TIME STEP   13
 
 SOLVING FOR HEAD 
                                                   Max.-Head-Change                         Max.-Flux-Residual
  Residual-Control   Outer-Iter.   Inner-Iter.     Column Row Layer    Maximum-Head-Change  Column Row Layer    Maximum-Flux-Residual          L2-NORM 
          0                 1           2             3    2     2       0.9588798771E-01       3    2    2         0.2596382260E+01      0.9125580842E+01
          0                 2           2             3    2     2      -0.4921165027E-02       5   10    2        -0.1395629624E+00      0.5741192949E+00
          0                 3           1             6   10     2       0.2466320967E-03       6   10    2         0.7328975970E-02      0.2241532097E-01

    ------------------------------------------------
       NWT REQUIRED            3 OUTER ITERATIONS 
       AND A TOTAL OF          5 INNER ITERATIONS.
    ------------------------------------------------

 NO OUTPUT CONTROL FOR STRESS PERIOD    8   TIME STEP   14
 
 SOLVING FOR HEAD 
                                                   Max.-Head-Change                         Max.-Flux-Residual
  Residual-Control   Outer-Iter.   Inner-Iter.     Column Row Layer    Maximum-Head-Change  Column Row Layer    Maximum-Flux-Residual          L2-NORM 
          0                 1           2             3    2     2       0.9194044765E-01       3    2    2         0.2485778153E+01      0.8677308293E+01
          0                 2           2             5   10     2      -0.4868925915E-02       5   10    2        -0.1384410490E+00      0.5471148511E+00
          0                 3           1             6   10     2       0.2389463151E-03       6   10    2         0.7056349803E-02      0.2109098597E-01

    ------------------------------------------------
       NWT REQUIRED            3 OUTER ITERATIONS 
       AND A TOTAL OF          5 INNER ITERATIONS.
    ------------------------------------------------

 OUTPUT CONTROL FOR STRESS PERIOD    8   TIME STEP   15
    PRINT BUDGET
    PRINT HEAD FOR ALL LAYERS
    SAVE HEAD FOR ALL LAYERS
    SAVE BUDGET

  HEAD DEP BOUNDS   PERIOD    8   STEP    15
 BOUNDARY      1   LAYER   2   ROW    13   COL     1   RATE   -0.319775    
 BOUNDARY      2   LAYER   2   ROW    14   COL     9   RATE    0.214648    



 STREAM LISTING     PERIOD      8   STEP       15

 LAYER ROW COL. STREAM  RCH.  FLOW INTO     FLOW TO   FLOW OUT OF   OVRLND.     DIRECT     STREAM       STREAM     STREAM     STREAM   STREAMBED  STREAMBED
                SEG.NO.  NO.  STRM. RCH.    AQUIFER    STRM. RCH.    RUNOFF     PRECIP       ET          HEAD       DEPTH      WIDTH   CONDCTNC.   GRADIENT

   2    1    1     1     1    2.0400E+02  1.9324E+00   2.0207E+02  0.000E+00  0.000E+00  0.000E+00  1.09539E+03  2.344E+00  2.871E+01  1.292E+00  4.985E-01
   2    2    2     1     2    2.0207E+02  6.2878E+00   1.9578E+02  0.000E+00  0.000E+00  0.000E+00  1.09038E+03  2.326E+00  2.849E+01  1.995E+00  1.051E+00
   2    3    3     1     3    1.9578E+02  8.9160E+00   1.8686E+02  0.000E+00  0.000E+00  0.000E+00  1.08471E+03  2.292E+00  2.808E+01  1.685E+00  1.764E+00
   2    3    4     1     4    1.8686E+02  8.0490E+00   1.7881E+02  0.000E+00  0.000E+00  0.000E+00  1.07966E+03  2.254E+00  2.760E+01  1.532E+00  1.751E+00
   2    4    5     2     1    1.6881E+02  0.0000E+00   1.6881E+02  0.000E+00  0.000E+00  0.000E+00  1.07573E+03  3.798E+00  1.200E+01  0.000E+00  2.266E+00
   2    5    6     2     2    1.6881E+02  4.0625E+00   1.6475E+02  0.000E+00  0.000E+00  0.000E+00  1.07028E+03  3.771E+00  1.200E+01  6.000E-01  2.257E+00
   2    6    6     2     3    1.6475E+02  4.0294E+00   1.6072E+02  0.000E+00  0.000E+00  0.000E+00  1.06551E+03  3.716E+00  1.200E+01  6.000E-01  2.239E+00
   2    7    6     2     4    1.6072E+02  3.9963E+00   1.5673E+02  0.000E+00  0.000E+00  0.000E+00  1.06074E+03  3.660E+00  1.200E+01  6.000E-01  2.220E+00
   2    8    6     2     5    1.5673E+02  3.9631E+00   1.5276E+02  0.000E+00  0.000E+00  0.000E+00  1.05596E+03  3.605E+00  1.200E+01  6.000E-01  2.202E+00
   2    3    5     3     1    1.0000E+01  2.8252E+00   7.1748E+00  0.000E+00  0.000E+00  0.000E+00  1.07555E+03  1.909E+00  9.636E+00  7.227E-01  1.955E+00
   2    3    6     3     2    7.1748E+00  2.4905E+00   4.6843E+00  0.000E+00  0.000E+00  0.000E+00  1.07264E+03  1.727E+00  8.909E+00  6.682E-01  1.864E+00
   2    3    7     3     3    4.6843E+00  1.9718E+00   2.7125E+00  0.000E+00  0.000E+00  0.000E+00  1.06987E+03  1.555E+00  8.218E+00  5.547E-01  1.777E+00
   2    4    8     3     4    2.7125E+00  2.2567E+00   4.5579E-01  0.000E+00  0.000E+00  0.000E+00  1.06682E+03  1.364E+00  7.455E+00  6.709E-01  1.682E+00
   2    5    8     3     5    4.5579E-01  4.5579E-01   0.0000E+00  0.000E+00  0.000E+00  0.000E+00  1.06362E+03  0.000E+00  6.655E+00  4.991E-01  1.582E+00
   2    6    8     3     6    0.0000E+00  0.0000E+00   0.0000E+00  0.000E+00  0.000E+00  0.000E+00  1.06055E+03  0.000E+00  6.145E+00  1.844E-01  1.000E+00
   2    5   10     4     1    1.0000E+01  9.0525E-01   9.0947E+00  0.000E+00  0.000E+00  0.000E+00  1.07835E+03  6.210E-01  1.000E+01  2.500E-01  1.207E+00
   2    5    9     4     2    9.0947E+00  1.7835E+00   7.3113E+00  0.000E+00  0.000E+00  0.000E+00  1.07148E+03  5.670E-01  1.000E+01  5.000E-01  1.189E+00
   2    6    8     4     3    7.3113E+00  1.2257E+00   6.0855E+00  0.000E+00  0.000E+00  0.000E+00  1.06368E+03  5.021E-01  1.000E+01  3.500E-01  1.167E+00
   2    6    8     5     1    6.0855E+00  1.4716E+00   4.6139E+00  0.000E+00  0.000E+00  0.000E+00  1.05854E+03  5.396E-01  1.039E+01  4.158E-01  1.180E+00
   2    7    7     5     2    4.6139E+00  1.4897E+00   3.1242E+00  0.000E+00  0.000E+00  0.000E+00  1.05398E+03  4.817E-01  8.557E+00  4.279E-01  1.161E+00
   2    8    7     5     3    3.1242E+00  8.2855E-01   2.2957E+00  0.000E+00  0.000E+00  0.000E+00  1.04968E+03  4.253E-01  6.911E+00  2.419E-01  1.142E+00
   2    8    6     5     4    2.2957E+00  4.9455E-01   1.8011E+00  0.000E+00  0.000E+00  0.000E+00  1.04664E+03  3.856E-01  5.843E+00  1.461E-01  1.129E+00
   2    9    6     6     1    1.5456E+02  3.9688E+00   1.5060E+02  0.000E+00  0.000E+00  0.000E+00  1.04634E+03  3.615E+00  1.200E+01  6.000E-01  2.205E+00
   2   10    7     6     2    1.5060E+02  3.9349E+00   1.4666E+02  0.000E+00  0.000E+00  0.000E+00  1.04174E+03  3.558E+00  1.200E+01  6.000E-01  2.186E+00
   2   11    7     6     3    1.4666E+02  2.9518E+00   1.4371E+02  0.000E+00  0.000E+00  0.000E+00  1.03714E+03  3.509E+00  1.200E+01  6.000E-01  1.640E+00
   2   12    7     6     4    1.4371E+02  1.6293E+00   1.4208E+02  0.000E+00  0.000E+00  0.000E+00  1.03257E+03  3.475E+00  1.200E+01  6.000E-01  9.051E-01
   2   13    7     6     5    1.4208E+02 -4.7326E-02   1.4213E+02  0.000E+00  0.000E+00  0.000E+00  1.02937E+03  3.464E+00  1.200E+01  2.400E-01 -6.573E-02
   2   14    9     7     1    1.5000E+02  2.8680E+00   1.4713E+02  0.000E+00  0.000E+00  0.000E+00  1.03986E+03  2.284E+00  5.528E+01  5.591E+00  1.710E-01
   2   13    8     7     2    1.4713E+02  3.5377E+00   1.4359E+02  0.000E+00  0.000E+00  0.000E+00  1.03477E+03  2.267E+00  5.520E+01  6.141E+00  1.920E-01
   2   13    7     7     3    1.4359E+02  5.8494E-01   1.4301E+02  0.000E+00  0.000E+00  0.000E+00  1.02967E+03  2.255E+00  5.515E+01  5.577E+00  3.496E-02
   2   13    6     8     1    2.8514E+02  4.6822E-01   2.8524E+02  5.691E-01  0.000E+00  0.000E+00  1.02546E+03  3.584E+00  5.197E+01  5.296E+00  2.947E-02
   2   13    5     8     2    2.8524E+02 -2.4442E+00   2.8825E+02  5.691E-01  0.000E+00  0.000E+00  1.01922E+03  3.592E+00  5.208E+01  5.307E+00 -1.535E-01
   2   13    4     8     3    2.8825E+02 -4.5931E+00   2.9341E+02  5.691E-01  0.000E+00  0.000E+00  1.01299E+03  3.611E+00  5.236E+01  5.335E+00 -2.870E-01
   2   13    3     8     4    2.9341E+02 -5.4109E+00   2.9939E+02  5.691E-01  0.000E+00  0.000E+00  1.00676E+03  3.637E+00  5.273E+01  5.373E+00 -3.357E-01
   2   13    2     8     5    2.9939E+02 -4.1402E+00   3.0410E+02  5.691E-01  0.000E+00  0.000E+00  1.00054E+03  3.661E+00  5.308E+01  5.409E+00 -2.551E-01
   2   13    1     8     6    3.0410E+02 -2.8093E+00   3.0725E+02  3.415E-01  0.000E+00  0.000E+00  9.95554E+02  3.679E+00  5.334E+01  3.261E+00 -2.871E-01
   2    4    5     9     1    0.0000E+00  0.0000E+00   0.0000E+00  0.000E+00  0.000E+00  0.000E+00  1.06000E+03  0.000E+00  2.000E+01  2.000E-03  4.949E-01
   2    4    5    10     1    0.0000E+00  0.0000E+00   0.0000E+00  0.000E+00  0.000E+00  0.000E+00  1.08000E+03  0.000E+00  2.000E+01  2.000E-03  1.000E+00





     0  LAKE CELLS ARE DRY.

 PERIOD     8     TIME STEP    15     TIME STEP LENGTH  1.7520E+05
 PERIOD TIME  2.6280E+06     TOTAL SIMULATION TIME  2.1024E+07


                 HYDROLOGIC BUDGET SUMMARIES FOR SIMULATED LAKES
     (ALL FLUID FLUXES ARE VOLUMES ADDED TO THE LAKE DURING PRESENT TIME STEP)
     ----------------------------------------------------------------------------------------
 LAKE    STAGE         VOLUME     VOL. CHANGE      PRECIP     EVAPORATION    SPECIFIED RUNOFF     COMPUTED RUNOFF    TOTAL RUNOFF
   1  1.074500E+03  4.426953E+01 -5.130077E+00  0.000000E+00  4.887757E+00   0.000000E+00          0.000000E+00      0.000000E+00

            GROUND WATER            SURFACE WATER        WATER          UZF INFIL.
 LAKE    INFLOW     OUTFLOW      INFLOW     OUTFLOW       USE        FROM LAKE
   1  0.0000E+00  0.0000E+00  0.0000E+00  0.0000E+00  0.0000E+00       2.4232E-01

      CONNECTED LAKE   TIME-STEP         STAGE-CHANGE          PERCENT
 LAKE    INFLUX      SURFACE AREA   TIME STEP  CUMULATIVE    DISCREPANCY
   1   0.0000E+00     6.9745E+02   2.0361E-05  2.6450E-04      -0.000
 --------------------------------------------------------------------------------



            CUMULATIVE HYDROLOGIC BUDGET SUMMARIES FOR SIMULATED LAKES
     (ALL FLUID FLUXES ARE SUMS OF VOLUMES ADDED TO THE LAKE SINCE INITIAL TIME)
     ---------------------------------------------------------------------------
 LAKE       PRECIP       EVAP     SPECIFIED RUNOFF   COMPUTED RUNOFF   TOTAL RUNOFF
   1     0.0000E+00  1.6032E+06       0.0000E+00       0.0000E+00       0.0000E+00

            GROUND WATER            SURFACE WATER       UZF INFIL.
 LAKE    INFLOW     OUTFLOW      INFLOW     OUTFLOW     FROM LAKE
   1  0.0000E+00  0.0000E+00  1.9325E+08  4.8785E+07    1.4286E+08

         WATER    CONNECTED LAKE   CHANGE       PERCENT
 LAKE     USE         INFLUX       IN VOL.    DISCREPANCY
   1   0.0000E+00   0.0000E+00   4.4270E+01     -0.000
 --------------------------------------------------------------------------------

 UBDSV3 SAVING "           GW ET" ON UNIT  61 AT TIME STEP 15, STRESS PERIOD 8
 UBDSV3 SAVING "    UZF RECHARGE" ON UNIT  61 AT TIME STEP 15, STRESS PERIOD 8
 UBDSV3 SAVING " SURFACE LEAKAGE" ON UNIT  61 AT TIME STEP 15, STRESS PERIOD 8


UNSATURATED ZONE PACKAGE VOLUMETRIC BUDGET FOR  TIME STEP    15 STRESS PERIOD    8
  ------------------------------------------------------------------------------



     CUMULATIVE VOLUMES      L**3       RATES FOR THIS TIME STEP      L**3/T
     ------------------                 ------------------------

           IN:                                      IN:
           ---                                      ---
        INFILTRATION =  1496903052.5207          INFILTRATION =          42.0519

          OUT:                                     OUT:
          ----                                     ----
              UZF ET =  1344041403.8441                UZF ET =          32.9862
        UZF RECHARGE =   675687564.4843          UZF RECHARGE =           9.5753

            IN - OUT =  -522825915.8076              IN - OUT =          -0.5096

          STORAGE:                                 STORAGE:
          --------                                 --------
      STORAGE CHANGE =  -522069892.1434        STORAGE CHANGE =          -0.5019

 PERCENT DISCREPANCY IS DIFFERENCE BETWEEN IN-OUT MINUS CHANGE IN STORAGE
 DIVIDED BY THE AVERAGE OF IN AND OUT TIMES 100

 PERCENT DISCREPANCY =          -0.01     PERCENT DISCREPANCY =          -0.02






1
              HEAD IN LAYER 1 AT END OF TIME STEP 15 IN STRESS PERIOD 8
  ---------------------------------------------------------------------------

           1       2       3       4       5       6       7       8       9      10
 ...................................................................................
   1  6999.00 6999.00 6999.00 6999.00 6999.00 6999.00 6999.00 6999.00 6999.00 6999.00
   2  6999.00 6999.00 6999.00 6999.00 6999.00 6999.00 6999.00 6999.00 6999.00 6999.00
   3  6999.00 6999.00 6999.00 6999.00 6999.00 6999.00 6999.00 6999.00 6999.00 6999.00
   4  6999.00 6999.00 6999.00 6999.00 1074.50 6999.00 6999.00 6999.00 6999.00 6999.00
   5  6999.00 6999.00 6999.00 6999.00 6999.00 6999.00 6999.00 6999.00 6999.00 6999.00
   6  6999.00 6999.00 6999.00 6999.00 6999.00 6999.00 6999.00 6999.00 6999.00 6999.00
   7  6999.00 6999.00 6999.00 6999.00 6999.00 6999.00 6999.00 6999.00 6999.00 6999.00
   8  6999.00 6999.00 6999.00 6999.00 6999.00 6999.00 6999.00 6999.00 6999.00 6999.00
   9  6999.00 6999.00 6999.00 6999.00 6999.00 6999.00 6999.00 6999.00 6999.00 6999.00
  10  6999.00 6999.00 6999.00 6999.00 6999.00 6999.00 6999.00 6999.00 6999.00 6999.00
  11  6999.00 6999.00 6999.00 6999.00 6999.00 6999.00 6999.00 6999.00 6999.00 6999.00
  12  6999.00 6999.00 6999.00 6999.00 6999.00 6999.00 6999.00 6999.00 6999.00 6999.00
  13  6999.00 6999.00 6999.00 6999.00 6999.00 6999.00 6999.00 6999.00 6999.00 6999.00
  14  6999.00 6999.00 6999.00 6999.00 6999.00 6999.00 6999.00 6999.00 6999.00 6999.00
  15  6999.00 6999.00 6999.00 6999.00 6999.00 6999.00 6999.00 6999.00 6999.00 6999.00
1
              HEAD IN LAYER 2 AT END OF TIME STEP 15 IN STRESS PERIOD 8
  ---------------------------------------------------------------------------

           1       2       3       4       5       6       7       8       9      10
 ...................................................................................
   1  1093.90 1088.41 6999.00 6999.00 6999.00 6999.00 6999.00 6999.00 6999.00 6999.00
   2  1087.83 1087.23 1079.32 6999.00 6999.00 1067.67 1067.06 1065.19 6999.00 6999.00
   3  6999.00 1074.88 1075.41 1071.10 1067.85 1066.44 1065.50 1063.63 6999.00 6999.00
   4  1061.59 1063.22 1064.05 1061.13 1058.52 1057.54 1057.40 1059.87 1057.99 6999.00
   5  1057.68 1055.30 1054.42 1053.73 1053.41 1053.94 1052.41 1052.86 1055.60 1057.70
   6  1053.57 1049.85 1048.00 1047.91 1048.38 1050.12 1049.64 1050.65 1052.44 1057.13
   7  1050.65 1044.91 1042.73 1042.79 1043.74 1046.05 1046.35 1047.50 1049.09 6999.00
   8  6999.00 1039.34 1037.89 1038.13 1039.22 1041.76 1042.13 1043.70 1045.34 6999.00
   9  6999.00 1033.51 1032.81 1033.37 1034.58 1037.10 1037.70 1038.05 1040.82 6999.00
  10  6999.00 1027.50 1027.59 1028.79 1030.26 1032.54 1034.87 1034.59 1037.25 1040.43
  11  6999.00 1019.82 1021.00 1024.16 1026.44 1029.18 1032.23 1032.43 1035.13 6999.00
  12  1003.24 1009.92 1014.20 1018.81 1022.65 1026.51 1029.85 1031.46 1034.75 6999.00
  13   996.42 1001.30 1007.77 1013.85 1019.68 1025.37 1029.57 1034.19 1036.74 6999.00
  14  6999.00 1007.06 1010.96 1015.91 1021.06 1025.99 1030.35 1035.24 1039.35 6999.00
  15  6999.00 6999.00 1018.62 1021.40 1025.00 1028.00 6999.00 6999.00 6999.00 6999.00

 HEAD WILL BE SAVED ON UNIT   58 AT END OF TIME STEP   15, STRESS PERIOD    8
1
  VOLUMETRIC BUDGET FOR ENTIRE MODEL AT END OF TIME STEP   15, STRESS PERIOD   8
  ------------------------------------------------------------------------------

     CUMULATIVE VOLUMES      L**3       RATES FOR THIS TIME STEP      L**3/T
     ------------------                 ------------------------

           IN:                                      IN:
           ---                                      ---
             STORAGE     =   168351232.0000               STORAGE     =           7.4009
       CONSTANT HEAD     =           0.0000         CONSTANT HEAD     =           0.0000
               WELLS     =           0.0000                 WELLS     =           0.0000
     HEAD DEP BOUNDS     =     4509026.5000       HEAD DEP BOUNDS     =           0.2146
      STREAM LEAKAGE     =  1618294144.0000        STREAM LEAKAGE     =          79.3790
       LAKE  SEEPAGE     =           0.0000         LAKE  SEEPAGE     =           0.0000
        UZF RECHARGE     =   675687424.0000          UZF RECHARGE     =           9.5753
               GW ET     =           0.0000                 GW ET     =           0.0000
     SURFACE LEAKAGE     =           0.0000       SURFACE LEAKAGE     =           0.0000

                TOTAL IN =  2466841856.0000                  TOTAL IN =          96.5698

          OUT:                                     OUT:
          ----                                     ----
             STORAGE     =  1425741824.0000               STORAGE     =          55.7789
       CONSTANT HEAD     =           0.0000         CONSTANT HEAD     =           0.0000
               WELLS     =   289080000.0000                 WELLS     =           0.0000
     HEAD DEP BOUNDS     =     6387372.0000       HEAD DEP BOUNDS     =           0.3198
      STREAM LEAKAGE     =   368976096.0000        STREAM LEAKAGE     =          19.4449
       LAKE  SEEPAGE     =           0.0000         LAKE  SEEPAGE     =           0.0000
        UZF RECHARGE     =           0.0000          UZF RECHARGE     =           0.0000
               GW ET     =   293800512.0000                 GW ET     =          18.0386
     SURFACE LEAKAGE     =    82836456.0000       SURFACE LEAKAGE     =           2.9875

               TOTAL OUT =  2466822400.0000                 TOTAL OUT =          96.5697

                IN - OUT =       19456.0000                  IN - OUT =       9.9182E-05

     PERCENT DISCREPANCY =           0.00         PERCENT DISCREPANCY =           0.00






         TIME SUMMARY AT END OF TIME STEP   15 IN STRESS PERIOD    8
                    SECONDS     MINUTES      HOURS       DAYS        YEARS
                    -----------------------------------------------------------
   TIME STEP LENGTH 1.75200E+05  2920.0      48.667      2.0278     5.55175E-03
 STRESS PERIOD TIME 2.62800E+06  43800.      730.00      30.417     8.32763E-02
         TOTAL TIME 2.10240E+07 3.50400E+05  5840.0      243.33     0.66621    
1
1
                            STRESS PERIOD NO.    9, LENGTH =   2628000.    
                            -----------------------------------------------

                              NUMBER OF TIME STEPS =    15

                               MULTIPLIER FOR DELT =     1.000

                            INITIAL TIME STEP SIZE =   175200.0    

 WELL NO.  LAYER   ROW   COL   STRESS RATE         
 --------------------------------------------------
      1      2      6      4      -1.000    
      2      2      6      5      -1.000    
      3      2      7      4      -1.000    
      4      2      7      5      -1.000    
      5      2      8      4      -1.000    
      6      2      8      5      -1.000    
      7      2      9      4      -1.000    
      8      2      9      5      -1.000    
      9      2     10      4      -1.000    
     10      2     10      5      -1.000    

     10 WELLS

 REUSING NON-PARAMETER GHB CELLS FROM LAST STRESS PERIOD

      2 GHB CELLS

 REUSING STREAM SEGMENT DATA FROM LAST STRESS PERIOD



            AREAL INFILTRATION RATE
 READING ON UNIT   19 WITH FORMAT: (10F4.0)            

            1           2           3           4           5           6           7           8           9          10
 ........................................................................................................................
   1   3.0000E-09  6.0000E-09   0.000       0.000       0.000       0.000       0.000       0.000       0.000       0.000    
   2   6.0000E-09  3.0000E-09  6.0000E-09   0.000       0.000      2.4000E-08  2.4000E-08  1.5000E-08   0.000       0.000    
   3    0.000      1.5000E-08  3.0000E-09  3.0000E-09  2.4000E-08  2.4000E-08  1.5000E-08  1.5000E-08   0.000       0.000    
   4   2.4000E-08  1.5000E-08  3.0000E-09  3.0000E-09  3.0000E-09  3.0000E-09  3.0000E-09  3.0000E-09  6.0000E-09   0.000    
   5   2.4000E-08  1.5000E-08  3.0000E-09  3.0000E-09  3.0000E-09  3.0000E-09  3.0000E-09  3.0000E-09  3.0000E-09  3.0000E-09
   6   2.4000E-08  1.5000E-08  1.5000E-08  6.0000E-09  6.0000E-09  3.0000E-09  3.0000E-09  3.0000E-09  3.0000E-09  1.5000E-08
   7   2.4000E-08  1.5000E-08  1.5000E-08  6.0000E-09  6.0000E-09  3.0000E-09  3.0000E-09  6.0000E-09  6.0000E-09   0.000    
   8    0.000      1.5000E-08  1.5000E-08  6.0000E-09  6.0000E-09  3.0000E-09  3.0000E-09  6.0000E-09  1.5000E-08   0.000    
   9    0.000      1.5000E-08  1.5000E-08  6.0000E-09  6.0000E-09  3.0000E-09  3.0000E-09  6.0000E-09  1.5000E-08   0.000    
  10    0.000      1.5000E-08  1.5000E-08  6.0000E-09  6.0000E-09  3.0000E-09  3.0000E-09  6.0000E-09  1.5000E-08  2.4000E-08
  11    0.000      3.0000E-09  3.0000E-09  3.0000E-09  3.0000E-09  3.0000E-09  3.0000E-09  6.0000E-09  1.5000E-08   0.000    
  12   3.0000E-09  3.0000E-09  3.0000E-09  3.0000E-09  3.0000E-09  3.0000E-09  3.0000E-09  3.0000E-09  6.0000E-09   0.000    
  13   3.0000E-09  3.0000E-09  6.0000E-09  6.0000E-09  6.0000E-09  6.0000E-09  6.0000E-09  3.0000E-09  3.0000E-09   0.000    
  14    0.000      6.0000E-09  1.5000E-08  1.5000E-08  1.5000E-08  1.5000E-08  1.5000E-08  6.0000E-09  3.0000E-09   0.000    
  15    0.000       0.000      2.4000E-08  2.4000E-08  2.4000E-08  2.4000E-08   0.000       0.000       0.000       0.000    

USING ET RATE FROM PREVIOUS STRESS PERIOD. CURRENT PERIOD IS:       9

 USING ET EXTINCTION DEPTH FROM PREVIOUS STRESS PERIOD. CURRENT PERIOD IS:       9

 USING EXTINCTION WATER CONTENT FROM PREVIOUS STRESS PERIOD. CURRENT PERIOD IS:       9




 If any subsequent steady-state stress periods, min. and max. stages for each lake will be read in Record 9a.




 REUSING LAKE CONFIGURATION DATA FROM LAST STRESS PERIOD


 LAKE       PRECIP     EVAP     RUNOFF   WITHDRAW   BOTTOM     AREA
----------------------------------------------------------------------
   1     0.000E+00 4.000E-08 0.000E+00  0.000E+00 1.074E+03 2.500E+07




         C               INTERFACE CONDUCTANCES BETWEEN LAKE AND AQUIFER CELLS
   L     O          (IF TYPE = 6, CONDUCTANCE (L^2/T) IS BETWEEN AQUIFER CELL AND OVERLYING LAKE CELL.)
   A     L  L  T    (IF TYPE = 1 TO 4, CONDUCTANCES ARE PER UNIT SATURATED THICKNESS (L/T).)
   Y  R  U  A  Y
   E  O  M  K  P                        LAKEBED      C O N D U C T A N C E S
   R  W  N  E  E     DELTA Y   DELTA X  LEAKANCE   LAKEBED   AQUIFER  COMBINED
 _______________________________________________________________________________
   1  4  4  1  2    5.00E+03  5.00E+03  5.00E-02  2.50E+02  6.00E-03  6.00E-03
   1  3  5  1  3    5.00E+03  5.00E+03  5.00E-02  2.50E+02  1.20E-03  1.20E-03
   2  4  5  1  6    5.00E+03  5.00E+03  5.00E-02  1.25E+06  9.42E+00  9.42E+00
   1  5  5  1  4    5.00E+03  5.00E+03  5.00E-02  2.50E+02  6.00E-03  6.00E-03
   1  4  6  1  1    5.00E+03  5.00E+03  5.00E-02  2.50E+02  6.00E-03  6.00E-03
 
      DEAD POOL STORAGE FOR LAKE    1 BELOW SEGMENT   10 IS EQUAL TO     0.1200000000E+09
 
      LAKE     INFLOWING STREAM SEGMENT
         1                  9

 MAXIMUM NUMBER OF STREAMS INFLOWING TO A LAKE IS    1

      LAKE     OUTFLOWING STREAM SEGMENT
         1                 10

 MAXIMUM NUMBER OF STREAMS OUTFLOWING FROM A LAKE IS    1

 
 SOLVING FOR HEAD 
                                                   Max.-Head-Change                         Max.-Flux-Residual
  Residual-Control   Outer-Iter.   Inner-Iter.     Column Row Layer    Maximum-Head-Change  Column Row Layer    Maximum-Flux-Residual          L2-NORM 
          0                 1           2             3    2     2       0.8828152706E-01       3    2    2         0.2383445113E+01      0.6588792559E+01
          0                 2           2             3    2     2      -0.4530579249E-02       3    2    2        -0.1270977261E+00      0.4484067897E+00
          0                 3           1             6   10     2       0.2271487703E-03       6   10    2         0.6836175867E-02      0.1908095247E-01

    ------------------------------------------------
       NWT REQUIRED            3 OUTER ITERATIONS 
       AND A TOTAL OF          5 INNER ITERATIONS.
    ------------------------------------------------

 NO OUTPUT CONTROL FOR STRESS PERIOD    9   TIME STEP    1
 
 SOLVING FOR HEAD 
                                                   Max.-Head-Change                         Max.-Flux-Residual
  Residual-Control   Outer-Iter.   Inner-Iter.     Column Row Layer    Maximum-Head-Change  Column Row Layer    Maximum-Flux-Residual          L2-NORM 
          0                 1           2             3    2     2       0.8415929635E-01       3    2    2         0.2288594939E+01      0.6610531639E+01
          0                 2           2             3    2     2      -0.4339212697E-02       3    2    2        -0.1233454942E+00      0.4525789205E+00
          0                 3           1             6   10     2       0.2123911712E-03       6   10    2         0.6422367208E-02      0.1956627381E-01

    ------------------------------------------------
       NWT REQUIRED            3 OUTER ITERATIONS 
       AND A TOTAL OF          5 INNER ITERATIONS.
    ------------------------------------------------

 NO OUTPUT CONTROL FOR STRESS PERIOD    9   TIME STEP    2
 
 SOLVING FOR HEAD 
                                                   Max.-Head-Change                         Max.-Flux-Residual
  Residual-Control   Outer-Iter.   Inner-Iter.     Column Row Layer    Maximum-Head-Change  Column Row Layer    Maximum-Flux-Residual          L2-NORM 
          0                 1           2             3    2     2       0.7915757758E-01       3    2    2         0.2177707504E+01      0.6982217759E+01
          0                 2           2             2    2     2       0.5135702884E-02       2    2    2         0.1567511468E+00      0.4954669409E+00
          0                 3           1             2    2     2      -0.2954489350E-03       2    2    2        -0.9215343098E-02      0.2276749165E-01

    ------------------------------------------------
       NWT REQUIRED            3 OUTER ITERATIONS 
       AND A TOTAL OF          5 INNER ITERATIONS.
    ------------------------------------------------

 NO OUTPUT CONTROL FOR STRESS PERIOD    9   TIME STEP    3
 
 SOLVING FOR HEAD 
                                                   Max.-Head-Change                         Max.-Flux-Residual
  Residual-Control   Outer-Iter.   Inner-Iter.     Column Row Layer    Maximum-Head-Change  Column Row Layer    Maximum-Flux-Residual          L2-NORM 
          0                 1           2             3    2     2       0.7470879014E-01       3    2    2         0.2052135376E+01      0.6481180903E+01
          0                 2           2             2    2     2       0.4442393457E-02       2    2    2         0.1359152866E+00      0.4590865252E+00
          0                 3           1             2    2     2      -0.2557073084E-03       2    2    2        -0.7983756311E-02      0.2083578016E-01

    ------------------------------------------------
       NWT REQUIRED            3 OUTER ITERATIONS 
       AND A TOTAL OF          5 INNER ITERATIONS.
    ------------------------------------------------

 NO OUTPUT CONTROL FOR STRESS PERIOD    9   TIME STEP    4
 
 SOLVING FOR HEAD 
                                                   Max.-Head-Change                         Max.-Flux-Residual
  Residual-Control   Outer-Iter.   Inner-Iter.     Column Row Layer    Maximum-Head-Change  Column Row Layer    Maximum-Flux-Residual          L2-NORM 
          0                 1           2             3    2     2       0.7061820023E-01       3    2    2         0.1936803224E+01      0.6101156453E+01
          0                 2           2             2    2     2       0.3824877663E-02       2    2    2         0.1173671890E+00      0.4313523359E+00
          0                 3           1             2    2     2      -0.2202927422E-03       2    2    2        -0.6888028202E-02      0.1933126087E-01

    ------------------------------------------------
       NWT REQUIRED            3 OUTER ITERATIONS 
       AND A TOTAL OF          5 INNER ITERATIONS.
    ------------------------------------------------

 OUTPUT CONTROL FOR STRESS PERIOD    9   TIME STEP    5
    PRINT BUDGET
    SAVE BUDGET

            WELLS   PERIOD    9   STEP   5
 WELL      1   LAYER   2   ROW     6   COL     4   RATE    -1.00000    
 WELL      2   LAYER   2   ROW     6   COL     5   RATE    -1.00000    
 WELL      3   LAYER   2   ROW     7   COL     4   RATE    -1.00000    
 WELL      4   LAYER   2   ROW     7   COL     5   RATE    -1.00000    
 WELL      5   LAYER   2   ROW     8   COL     4   RATE    -1.00000    
 WELL      6   LAYER   2   ROW     8   COL     5   RATE    -1.00000    
 WELL      7   LAYER   2   ROW     9   COL     4   RATE    -1.00000    
 WELL      8   LAYER   2   ROW     9   COL     5   RATE    -1.00000    
 WELL      9   LAYER   2   ROW    10   COL     4   RATE    -1.00000    
 WELL     10   LAYER   2   ROW    10   COL     5   RATE    -1.00000    

  HEAD DEP BOUNDS   PERIOD    9   STEP     5
 BOUNDARY      1   LAYER   2   ROW    13   COL     1   RATE   -0.313818    
 BOUNDARY      2   LAYER   2   ROW    14   COL     9   RATE    0.214692    



 STREAM LISTING     PERIOD      9   STEP        5

 LAYER ROW COL. STREAM  RCH.  FLOW INTO     FLOW TO   FLOW OUT OF   OVRLND.     DIRECT     STREAM       STREAM     STREAM     STREAM   STREAMBED  STREAMBED
                SEG.NO.  NO.  STRM. RCH.    AQUIFER    STRM. RCH.    RUNOFF     PRECIP       ET          HEAD       DEPTH      WIDTH   CONDCTNC.   GRADIENT

   2    1    1     1     1    1.4800E+02  1.5535E+00   1.4645E+02  0.000E+00  0.000E+00  0.000E+00  1.09513E+03  2.079E+00  2.544E+01  1.145E+00  4.523E-01
   2    2    2     1     2    1.4645E+02  5.4082E+00   1.4104E+02  0.000E+00  0.000E+00  0.000E+00  1.09012E+03  2.061E+00  2.522E+01  1.765E+00  1.021E+00
   2    3    3     1     3    1.4104E+02  7.4738E+00   1.3356E+02  0.000E+00  0.000E+00  0.000E+00  1.08444E+03  2.026E+00  2.479E+01  1.487E+00  1.675E+00
   2    3    4     1     4    1.3356E+02  6.7231E+00   1.2684E+02  0.000E+00  0.000E+00  0.000E+00  1.07939E+03  1.986E+00  2.430E+01  1.348E+00  1.662E+00
   2    4    5     2     1    1.1684E+02  0.0000E+00   1.1684E+02  0.000E+00  0.000E+00  0.000E+00  1.07498E+03  3.046E+00  1.200E+01  0.000E+00  2.015E+00
   2    5    6     2     2    1.1684E+02  3.6105E+00   1.1323E+02  0.000E+00  0.000E+00  0.000E+00  1.06953E+03  3.017E+00  1.200E+01  6.000E-01  2.006E+00
   2    6    6     2     3    1.1323E+02  3.5763E+00   1.0965E+02  0.000E+00  0.000E+00  0.000E+00  1.06475E+03  2.961E+00  1.200E+01  6.000E-01  1.987E+00
   2    7    6     2     4    1.0965E+02  3.5421E+00   1.0611E+02  0.000E+00  0.000E+00  0.000E+00  1.05998E+03  2.903E+00  1.200E+01  6.000E-01  1.968E+00
   2    8    6     2     5    1.0611E+02  3.5077E+00   1.0260E+02  0.000E+00  0.000E+00  0.000E+00  1.05520E+03  2.846E+00  1.200E+01  6.000E-01  1.949E+00
   2    3    5     3     1    1.0000E+01  2.8252E+00   7.1748E+00  0.000E+00  0.000E+00  0.000E+00  1.07555E+03  1.909E+00  9.636E+00  7.227E-01  1.955E+00
   2    3    6     3     2    7.1748E+00  2.4905E+00   4.6843E+00  0.000E+00  0.000E+00  0.000E+00  1.07264E+03  1.727E+00  8.909E+00  6.682E-01  1.864E+00
   2    3    7     3     3    4.6843E+00  1.9718E+00   2.7125E+00  0.000E+00  0.000E+00  0.000E+00  1.06987E+03  1.555E+00  8.218E+00  5.547E-01  1.777E+00
   2    4    8     3     4    2.7125E+00  2.2567E+00   4.5579E-01  0.000E+00  0.000E+00  0.000E+00  1.06682E+03  1.364E+00  7.455E+00  6.709E-01  1.682E+00
   2    5    8     3     5    4.5579E-01  4.5579E-01   0.0000E+00  0.000E+00  0.000E+00  0.000E+00  1.06362E+03  0.000E+00  6.655E+00  4.991E-01  1.582E+00
   2    6    8     3     6    0.0000E+00  0.0000E+00   0.0000E+00  0.000E+00  0.000E+00  0.000E+00  1.06055E+03  0.000E+00  6.145E+00  1.844E-01  1.000E+00
   2    5   10     4     1    1.0000E+01  9.0525E-01   9.0947E+00  0.000E+00  0.000E+00  0.000E+00  1.07835E+03  6.210E-01  1.000E+01  2.500E-01  1.207E+00
   2    5    9     4     2    9.0947E+00  1.7835E+00   7.3113E+00  0.000E+00  0.000E+00  0.000E+00  1.07148E+03  5.670E-01  1.000E+01  5.000E-01  1.189E+00
   2    6    8     4     3    7.3113E+00  1.2257E+00   6.0855E+00  0.000E+00  0.000E+00  0.000E+00  1.06368E+03  5.021E-01  1.000E+01  3.500E-01  1.167E+00
   2    6    8     5     1    6.0855E+00  1.4716E+00   4.6139E+00  0.000E+00  0.000E+00  0.000E+00  1.05854E+03  5.396E-01  1.039E+01  4.158E-01  1.180E+00
   2    7    7     5     2    4.6139E+00  1.4897E+00   3.1242E+00  0.000E+00  0.000E+00  0.000E+00  1.05398E+03  4.817E-01  8.557E+00  4.279E-01  1.161E+00
   2    8    7     5     3    3.1242E+00  8.2855E-01   2.2957E+00  0.000E+00  0.000E+00  0.000E+00  1.04968E+03  4.253E-01  6.911E+00  2.419E-01  1.142E+00
   2    8    6     5     4    2.2957E+00  4.9455E-01   1.8011E+00  0.000E+00  0.000E+00  0.000E+00  1.04664E+03  3.856E-01  5.843E+00  1.461E-01  1.129E+00
   2    9    6     6     1    1.0441E+02  3.5098E+00   1.0090E+02  0.000E+00  0.000E+00  0.000E+00  1.04558E+03  2.850E+00  1.200E+01  6.000E-01  1.950E+00
   2   10    7     6     2    1.0090E+02  3.4746E+00   9.7421E+01  0.000E+00  0.000E+00  0.000E+00  1.04097E+03  2.791E+00  1.200E+01  6.000E-01  1.930E+00
   2   11    7     6     3    9.7421E+01  2.5048E+00   9.4917E+01  0.000E+00  0.000E+00  0.000E+00  1.03638E+03  2.740E+00  1.200E+01  6.000E-01  1.392E+00
   2   12    7     6     4    9.4917E+01  1.2126E+00   9.3704E+01  0.000E+00  0.000E+00  0.000E+00  1.03180E+03  2.708E+00  1.200E+01  6.000E-01  6.736E-01
   2   13    7     6     5    9.3704E+01 -2.2024E-01   9.3924E+01  0.000E+00  0.000E+00  0.000E+00  1.02861E+03  2.700E+00  1.200E+01  2.400E-01 -3.059E-01
   2   14    9     7     1    1.5000E+02  2.8743E+00   1.4713E+02  0.000E+00  0.000E+00  0.000E+00  1.03986E+03  2.284E+00  5.528E+01  5.591E+00  1.714E-01
   2   13    8     7     2    1.4713E+02  3.5468E+00   1.4358E+02  0.000E+00  0.000E+00  0.000E+00  1.03477E+03  2.266E+00  5.520E+01  6.141E+00  1.925E-01
   2   13    7     7     3    1.4358E+02  8.2266E-01   1.4276E+02  0.000E+00  0.000E+00  0.000E+00  1.02967E+03  2.255E+00  5.515E+01  5.577E+00  4.917E-02
   2   13    6     8     1    2.3668E+02  2.1381E-01   2.3674E+02  2.755E-01  0.000E+00  0.000E+00  1.02522E+03  3.342E+00  4.847E+01  4.939E+00  1.443E-02
   2   13    5     8     2    2.3674E+02 -2.8209E+00   2.3984E+02  2.755E-01  0.000E+00  0.000E+00  1.01898E+03  3.351E+00  4.859E+01  4.951E+00 -1.899E-01
   2   13    4     8     3    2.3984E+02 -5.0816E+00   2.4520E+02  2.755E-01  0.000E+00  0.000E+00  1.01275E+03  3.373E+00  4.891E+01  4.984E+00 -3.399E-01
   2   13    3     8     4    2.4520E+02 -5.8213E+00   2.5129E+02  2.755E-01  0.000E+00  0.000E+00  1.00653E+03  3.403E+00  4.934E+01  5.028E+00 -3.860E-01
   2   13    2     8     5    2.5129E+02 -4.1406E+00   2.5571E+02  2.755E-01  0.000E+00  0.000E+00  1.00030E+03  3.429E+00  4.973E+01  5.067E+00 -2.724E-01
   2   13    1     8     6    2.5571E+02 -2.8588E+00   2.5873E+02  1.653E-01  0.000E+00  0.000E+00  9.95323E+02  3.448E+00  5.000E+01  3.057E+00 -3.117E-01
   2    4    5     9     1    0.0000E+00  0.0000E+00   0.0000E+00  0.000E+00  0.000E+00  0.000E+00  1.06000E+03  0.000E+00  2.000E+01  2.000E-03  5.025E-01
   2    4    5    10     1    0.0000E+00  0.0000E+00   0.0000E+00  0.000E+00  0.000E+00  0.000E+00  1.08000E+03  0.000E+00  2.000E+01  2.000E-03  1.000E+00





     0  LAKE CELLS ARE DRY.

 PERIOD     9     TIME STEP     5     TIME STEP LENGTH  1.7520E+05
 PERIOD TIME  8.7600E+05     TOTAL SIMULATION TIME  2.1900E+07


                 HYDROLOGIC BUDGET SUMMARIES FOR SIMULATED LAKES
     (ALL FLUID FLUXES ARE VOLUMES ADDED TO THE LAKE DURING PRESENT TIME STEP)
     ----------------------------------------------------------------------------------------
 LAKE    STAGE         VOLUME     VOL. CHANGE      PRECIP     EVAPORATION    SPECIFIED RUNOFF     COMPUTED RUNOFF    TOTAL RUNOFF
   1  1.074500E+03  2.575667E+01 -2.925718E+00  0.000000E+00  2.843770E+00   0.000000E+00          0.000000E+00      0.000000E+00

            GROUND WATER            SURFACE WATER        WATER          UZF INFIL.
 LAKE    INFLOW     OUTFLOW      INFLOW     OUTFLOW       USE        FROM LAKE
   1  0.0000E+00  0.0000E+00  0.0000E+00  0.0000E+00  0.0000E+00       8.1948E-02

      CONNECTED LAKE   TIME-STEP         STAGE-CHANGE          PERCENT
 LAKE    INFLUX      SURFACE AREA   TIME STEP  CUMULATIVE    DISCREPANCY
   1   0.0000E+00     4.0579E+02   3.1821E-05  1.5389E-04       0.000
 --------------------------------------------------------------------------------



            CUMULATIVE HYDROLOGIC BUDGET SUMMARIES FOR SIMULATED LAKES
     (ALL FLUID FLUXES ARE SUMS OF VOLUMES ADDED TO THE LAKE SINCE INITIAL TIME)
     ---------------------------------------------------------------------------
 LAKE       PRECIP       EVAP     SPECIFIED RUNOFF   COMPUTED RUNOFF   TOTAL RUNOFF
   1     0.0000E+00  1.6032E+06       0.0000E+00       0.0000E+00       0.0000E+00

            GROUND WATER            SURFACE WATER       UZF INFIL.
 LAKE    INFLOW     OUTFLOW      INFLOW     OUTFLOW     FROM LAKE
   1  0.0000E+00  0.0000E+00  1.9325E+08  4.8785E+07    1.4286E+08

         WATER    CONNECTED LAKE   CHANGE       PERCENT
 LAKE     USE         INFLUX       IN VOL.    DISCREPANCY
   1   0.0000E+00   0.0000E+00   2.5757E+01     -0.000
 --------------------------------------------------------------------------------

 UBDSV3 SAVING "           GW ET" ON UNIT  61 AT TIME STEP 5, STRESS PERIOD 9
 UBDSV3 SAVING "    UZF RECHARGE" ON UNIT  61 AT TIME STEP 5, STRESS PERIOD 9
 UBDSV3 SAVING " SURFACE LEAKAGE" ON UNIT  61 AT TIME STEP 5, STRESS PERIOD 9


UNSATURATED ZONE PACKAGE VOLUMETRIC BUDGET FOR  TIME STEP     5 STRESS PERIOD    9
  ------------------------------------------------------------------------------



     CUMULATIVE VOLUMES      L**3       RATES FOR THIS TIME STEP      L**3/T
     ------------------                 ------------------------

           IN:                                      IN:
           ---                                      ---
        INFILTRATION =  1519028852.4475          INFILTRATION =          25.2752

          OUT:                                     OUT:
          ----                                     ----
              UZF ET =  1374300657.5650                UZF ET =          35.6173
        UZF RECHARGE =   683184594.5573          UZF RECHARGE =           8.4221

            IN - OUT =  -538456399.6749              IN - OUT =         -18.7641

          STORAGE:                                 STORAGE:
          --------                                 --------
      STORAGE CHANGE =  -537697654.4631        STORAGE CHANGE =         -18.7600

 PERCENT DISCREPANCY IS DIFFERENCE BETWEEN IN-OUT MINUS CHANGE IN STORAGE
 DIVIDED BY THE AVERAGE OF IN AND OUT TIMES 100

 PERCENT DISCREPANCY =          -0.01     PERCENT DISCREPANCY =          -0.01






1
  VOLUMETRIC BUDGET FOR ENTIRE MODEL AT END OF TIME STEP    5, STRESS PERIOD   9
  ------------------------------------------------------------------------------

     CUMULATIVE VOLUMES      L**3       RATES FOR THIS TIME STEP      L**3/T
     ------------------                 ------------------------

           IN:                                      IN:
           ---                                      ---
             STORAGE     =   176397440.0000               STORAGE     =           8.8486
       CONSTANT HEAD     =           0.0000         CONSTANT HEAD     =           0.0000
               WELLS     =           0.0000                 WELLS     =           0.0000
     HEAD DEP BOUNDS     =     4697086.5000       HEAD DEP BOUNDS     =           0.2147
      STREAM LEAKAGE     =  1683154432.0000        STREAM LEAKAGE     =          71.7535
       LAKE  SEEPAGE     =           0.0000         LAKE  SEEPAGE     =           0.0000
        UZF RECHARGE     =   683184448.0000          UZF RECHARGE     =           8.4221
               GW ET     =           0.0000                 GW ET     =           0.0000
     SURFACE LEAKAGE     =           0.0000       SURFACE LEAKAGE     =           0.0000

                TOTAL IN =  2547433472.0000                  TOTAL IN =          89.2388

          OUT:                                     OUT:
          ----                                     ----
             STORAGE     =  1461660032.0000               STORAGE     =          38.6189
       CONSTANT HEAD     =           0.0000         CONSTANT HEAD     =           0.0000
               WELLS     =   297840000.0000                 WELLS     =          10.0000
     HEAD DEP BOUNDS     =     6664443.0000       HEAD DEP BOUNDS     =           0.3138
      STREAM LEAKAGE     =   387123104.0000        STREAM LEAKAGE     =          20.9435
       LAKE  SEEPAGE     =           0.0000         LAKE  SEEPAGE     =           0.0000
        UZF RECHARGE     =           0.0000          UZF RECHARGE     =           0.0000
               GW ET     =   309528384.0000                 GW ET     =          17.8948
     SURFACE LEAKAGE     =    84597576.0000       SURFACE LEAKAGE     =           1.4674

               TOTAL OUT =  2547413504.0000                 TOTAL OUT =          89.2384

                IN - OUT =       19968.0000                  IN - OUT =       3.7384E-04

     PERCENT DISCREPANCY =           0.00         PERCENT DISCREPANCY =           0.00






         TIME SUMMARY AT END OF TIME STEP    5 IN STRESS PERIOD    9
                    SECONDS     MINUTES      HOURS       DAYS        YEARS
                    -----------------------------------------------------------
   TIME STEP LENGTH 1.75200E+05  2920.0      48.667      2.0278     5.55175E-03
 STRESS PERIOD TIME 8.76000E+05  14600.      243.33      10.139     2.77588E-02
         TOTAL TIME 2.19000E+07 3.65000E+05  6083.3      253.47     0.69397    
1
 
 SOLVING FOR HEAD 
                                                   Max.-Head-Change                         Max.-Flux-Residual
  Residual-Control   Outer-Iter.   Inner-Iter.     Column Row Layer    Maximum-Head-Change  Column Row Layer    Maximum-Flux-Residual          L2-NORM 
          0                 1           2             3    3     2       0.1557746653E+00       3    3    2         0.4212878514E+01      0.1197757220E+02
          0                 2           2             3    3     2      -0.1466003023E-01       3    3    2        -0.4145677917E+00      0.1065194924E+01
          0                 3           1             3    3     2       0.8196418025E-03       3    3    2         0.2422014683E-01      0.5289112517E-01

    ------------------------------------------------
       NWT REQUIRED            3 OUTER ITERATIONS 
       AND A TOTAL OF          5 INNER ITERATIONS.
    ------------------------------------------------

 NO OUTPUT CONTROL FOR STRESS PERIOD    9   TIME STEP    6
 
 SOLVING FOR HEAD 
                                                   Max.-Head-Change                         Max.-Flux-Residual
  Residual-Control   Outer-Iter.   Inner-Iter.     Column Row Layer    Maximum-Head-Change  Column Row Layer    Maximum-Flux-Residual          L2-NORM 
          0                 1           2             3    3     2       0.1502733428E+00       3    3    2         0.4058904691E+01      0.1074550537E+02
          0                 2           2             3    3     2      -0.1414527559E-01       3    3    2        -0.3996486249E+00      0.9129495437E+00
          0                 3           1             3    3     2       0.7915713373E-03       3    3    2         0.2338086509E-01      0.4622673509E-01

    ------------------------------------------------
       NWT REQUIRED            3 OUTER ITERATIONS 
       AND A TOTAL OF          5 INNER ITERATIONS.
    ------------------------------------------------

 NO OUTPUT CONTROL FOR STRESS PERIOD    9   TIME STEP    7
 
 SOLVING FOR HEAD 
                                                   Max.-Head-Change                         Max.-Flux-Residual
  Residual-Control   Outer-Iter.   Inner-Iter.     Column Row Layer    Maximum-Head-Change  Column Row Layer    Maximum-Flux-Residual          L2-NORM 
          0                 1           2             3    3     2       0.1451442006E+00       3    3    2         0.3915403841E+01      0.9922366464E+01
          0                 2           2             3    3     2      -0.1366775318E-01       3    3    2        -0.3858094833E+00      0.8265126555E+00
          0                 3           1             3    3     2       0.7654821203E-03       3    3    2         0.2260024615E-01      0.4240732406E-01

    ------------------------------------------------
       NWT REQUIRED            3 OUTER ITERATIONS 
       AND A TOTAL OF          5 INNER ITERATIONS.
    ------------------------------------------------

 NO OUTPUT CONTROL FOR STRESS PERIOD    9   TIME STEP    8
 
 SOLVING FOR HEAD 
                                                   Max.-Head-Change                         Max.-Flux-Residual
  Residual-Control   Outer-Iter.   Inner-Iter.     Column Row Layer    Maximum-Head-Change  Column Row Layer    Maximum-Flux-Residual          L2-NORM 
          0                 1           2             3    2     2       0.7442512861E-01       3    2    2         0.1972858479E+01      0.6406957157E+01
          0                 2           2             3    3     2      -0.5194802579E-02       3    3    2        -0.1448380525E+00      0.4661334618E+00
          0                 3           1             3    3     2       0.2916042980E-03       3    3    2         0.8612682689E-02      0.2118859749E-01

    ------------------------------------------------
       NWT REQUIRED            3 OUTER ITERATIONS 
       AND A TOTAL OF          5 INNER ITERATIONS.
    ------------------------------------------------

 NO OUTPUT CONTROL FOR STRESS PERIOD    9   TIME STEP    9
 
 SOLVING FOR HEAD 
                                                   Max.-Head-Change                         Max.-Flux-Residual
  Residual-Control   Outer-Iter.   Inner-Iter.     Column Row Layer    Maximum-Head-Change  Column Row Layer    Maximum-Flux-Residual          L2-NORM 
          0                 1           2             3    2     2       0.7037603497E-01       6   13    2        -0.2230156023E+01      0.7199486277E+01
          0                 2           2             6   13     2       0.4549321739E-02       6   13    2         0.1553816785E+00      0.5121775243E+00
          0                 3           1             6   13     2      -0.2405598439E-03       6   13    2        -0.8558424695E-02      0.2371190452E-01

    ------------------------------------------------
       NWT REQUIRED            3 OUTER ITERATIONS 
       AND A TOTAL OF          5 INNER ITERATIONS.
    ------------------------------------------------

 OUTPUT CONTROL FOR STRESS PERIOD    9   TIME STEP   10
    PRINT BUDGET
    SAVE BUDGET

            WELLS   PERIOD    9   STEP  10
 WELL      1   LAYER   2   ROW     6   COL     4   RATE    -1.00000    
 WELL      2   LAYER   2   ROW     6   COL     5   RATE    -1.00000    
 WELL      3   LAYER   2   ROW     7   COL     4   RATE    -1.00000    
 WELL      4   LAYER   2   ROW     7   COL     5   RATE    -1.00000    
 WELL      5   LAYER   2   ROW     8   COL     4   RATE    -1.00000    
 WELL      6   LAYER   2   ROW     8   COL     5   RATE    -1.00000    
 WELL      7   LAYER   2   ROW     9   COL     4   RATE    -1.00000    
 WELL      8   LAYER   2   ROW     9   COL     5   RATE    -1.00000    
 WELL      9   LAYER   2   ROW    10   COL     4   RATE    -1.00000    
 WELL     10   LAYER   2   ROW    10   COL     5   RATE    -1.00000    

  HEAD DEP BOUNDS   PERIOD    9   STEP    10
 BOUNDARY      1   LAYER   2   ROW    13   COL     1   RATE   -0.316565    
 BOUNDARY      2   LAYER   2   ROW    14   COL     9   RATE    0.214690    



 STREAM LISTING     PERIOD      9   STEP       10

 LAYER ROW COL. STREAM  RCH.  FLOW INTO     FLOW TO   FLOW OUT OF   OVRLND.     DIRECT     STREAM       STREAM     STREAM     STREAM   STREAMBED  STREAMBED
                SEG.NO.  NO.  STRM. RCH.    AQUIFER    STRM. RCH.    RUNOFF     PRECIP       ET          HEAD       DEPTH      WIDTH   CONDCTNC.   GRADIENT

   2    1    1     1     1    1.6500E+02  1.6175E+00   1.6338E+02  0.000E+00  0.000E+00  0.000E+00  1.09521E+03  2.165E+00  2.651E+01  1.193E+00  4.520E-01
   2    2    2     1     2    1.6338E+02  5.3400E+00   1.5804E+02  0.000E+00  0.000E+00  0.000E+00  1.09021E+03  2.148E+00  2.630E+01  1.841E+00  9.670E-01
   2    3    3     1     3    1.5804E+02  7.9428E+00   1.5010E+02  0.000E+00  0.000E+00  0.000E+00  1.08453E+03  2.115E+00  2.588E+01  1.553E+00  1.705E+00
   2    3    4     1     4    1.5010E+02  7.1543E+00   1.4295E+02  0.000E+00  0.000E+00  0.000E+00  1.07948E+03  2.075E+00  2.540E+01  1.410E+00  1.692E+00
   2    4    5     2     1    1.3295E+02  0.0000E+00   1.3295E+02  0.000E+00  0.000E+00  0.000E+00  1.07523E+03  3.291E+00  1.200E+01  0.000E+00  2.097E+00
   2    5    6     2     2    1.3295E+02  3.7579E+00   1.2919E+02  0.000E+00  0.000E+00  0.000E+00  1.06977E+03  3.263E+00  1.200E+01  6.000E-01  2.088E+00
   2    6    6     2     3    1.2919E+02  3.7242E+00   1.2546E+02  0.000E+00  0.000E+00  0.000E+00  1.06500E+03  3.207E+00  1.200E+01  6.000E-01  2.069E+00
   2    7    6     2     4    1.2546E+02  3.6904E+00   1.2177E+02  0.000E+00  0.000E+00  0.000E+00  1.06023E+03  3.151E+00  1.200E+01  6.000E-01  2.050E+00
   2    8    6     2     5    1.2177E+02  3.6565E+00   1.1812E+02  0.000E+00  0.000E+00  0.000E+00  1.05545E+03  3.094E+00  1.200E+01  6.000E-01  2.031E+00
   2    3    5     3     1    1.0000E+01  2.8252E+00   7.1748E+00  0.000E+00  0.000E+00  0.000E+00  1.07555E+03  1.909E+00  9.636E+00  7.227E-01  1.955E+00
   2    3    6     3     2    7.1748E+00  2.4905E+00   4.6843E+00  0.000E+00  0.000E+00  0.000E+00  1.07264E+03  1.727E+00  8.909E+00  6.682E-01  1.864E+00
   2    3    7     3     3    4.6843E+00  1.9718E+00   2.7125E+00  0.000E+00  0.000E+00  0.000E+00  1.06987E+03  1.555E+00  8.218E+00  5.547E-01  1.777E+00
   2    4    8     3     4    2.7125E+00  2.2567E+00   4.5579E-01  0.000E+00  0.000E+00  0.000E+00  1.06682E+03  1.364E+00  7.455E+00  6.709E-01  1.682E+00
   2    5    8     3     5    4.5579E-01  4.5579E-01   0.0000E+00  0.000E+00  0.000E+00  0.000E+00  1.06362E+03  0.000E+00  6.655E+00  4.991E-01  1.582E+00
   2    6    8     3     6    0.0000E+00  0.0000E+00   0.0000E+00  0.000E+00  0.000E+00  0.000E+00  1.06055E+03  0.000E+00  6.145E+00  1.844E-01  1.000E+00
   2    5   10     4     1    1.0000E+01  9.0525E-01   9.0947E+00  0.000E+00  0.000E+00  0.000E+00  1.07835E+03  6.210E-01  1.000E+01  2.500E-01  1.207E+00
   2    5    9     4     2    9.0947E+00  1.7835E+00   7.3113E+00  0.000E+00  0.000E+00  0.000E+00  1.07148E+03  5.670E-01  1.000E+01  5.000E-01  1.189E+00
   2    6    8     4     3    7.3113E+00  1.2257E+00   6.0855E+00  0.000E+00  0.000E+00  0.000E+00  1.06368E+03  5.021E-01  1.000E+01  3.500E-01  1.167E+00
   2    6    8     5     1    6.0855E+00  1.4716E+00   4.6139E+00  0.000E+00  0.000E+00  0.000E+00  1.05854E+03  5.396E-01  1.039E+01  4.158E-01  1.180E+00
   2    7    7     5     2    4.6139E+00  1.4897E+00   3.1242E+00  0.000E+00  0.000E+00  0.000E+00  1.05398E+03  4.817E-01  8.557E+00  4.279E-01  1.161E+00
   2    8    7     5     3    3.1242E+00  8.2855E-01   2.2957E+00  0.000E+00  0.000E+00  0.000E+00  1.04968E+03  4.253E-01  6.911E+00  2.419E-01  1.142E+00
   2    8    6     5     4    2.2957E+00  4.9455E-01   1.8011E+00  0.000E+00  0.000E+00  0.000E+00  1.04664E+03  3.856E-01  5.843E+00  1.461E-01  1.129E+00
   2    9    6     6     1    1.1992E+02  3.6597E+00   1.1626E+02  0.000E+00  0.000E+00  0.000E+00  1.04583E+03  3.100E+00  1.200E+01  6.000E-01  2.033E+00
   2   10    7     6     2    1.1626E+02  3.6251E+00   1.1263E+02  0.000E+00  0.000E+00  0.000E+00  1.04122E+03  3.042E+00  1.200E+01  6.000E-01  2.014E+00
   2   11    7     6     3    1.1263E+02  2.5721E+00   1.1006E+02  0.000E+00  0.000E+00  0.000E+00  1.03663E+03  2.992E+00  1.200E+01  6.000E-01  1.429E+00
   2   12    7     6     4    1.1006E+02  1.3100E+00   1.0875E+02  0.000E+00  0.000E+00  0.000E+00  1.03205E+03  2.961E+00  1.200E+01  6.000E-01  7.278E-01
   2   13    7     6     5    1.0875E+02 -1.6709E-01   1.0892E+02  0.000E+00  0.000E+00  0.000E+00  1.02886E+03  2.951E+00  1.200E+01  2.400E-01 -2.321E-01
   2   14    9     7     1    1.5000E+02  2.8740E+00   1.4713E+02  0.000E+00  0.000E+00  0.000E+00  1.03986E+03  2.284E+00  5.528E+01  5.591E+00  1.713E-01
   2   13    8     7     2    1.4713E+02  3.5347E+00   1.4359E+02  0.000E+00  0.000E+00  0.000E+00  1.03477E+03  2.267E+00  5.520E+01  6.141E+00  1.919E-01
   2   13    7     7     3    1.4359E+02  6.5751E-01   1.4293E+02  0.000E+00  0.000E+00  0.000E+00  1.02967E+03  2.255E+00  5.515E+01  5.577E+00  3.930E-02
   2   13    6     8     1    2.5185E+02 -2.5242E-01   2.5268E+02  5.778E-01  0.000E+00  0.000E+00  1.02530E+03  3.423E+00  4.964E+01  5.058E+00 -1.664E-02
   2   13    5     8     2    2.5268E+02 -3.1493E+00   2.5641E+02  5.778E-01  0.000E+00  0.000E+00  1.01906E+03  3.435E+00  4.980E+01  5.075E+00 -2.068E-01
   2   13    4     8     3    2.5641E+02 -5.2279E+00   2.6221E+02  5.778E-01  0.000E+00  0.000E+00  1.01283E+03  3.459E+00  5.015E+01  5.111E+00 -3.410E-01
   2   13    3     8     4    2.6221E+02 -5.9642E+00   2.6876E+02  5.778E-01  0.000E+00  0.000E+00  1.00661E+03  3.489E+00  5.060E+01  5.156E+00 -3.856E-01
   2   13    2     8     5    2.6876E+02 -4.4685E+00   2.7380E+02  5.778E-01  0.000E+00  0.000E+00  1.00039E+03  3.518E+00  5.101E+01  5.198E+00 -2.866E-01
   2   13    1     8     6    2.7380E+02 -2.8790E+00   2.7703E+02  3.467E-01  0.000E+00  0.000E+00  9.95413E+02  3.538E+00  5.130E+01  3.136E+00 -3.060E-01
   2    4    5     9     1    0.0000E+00  0.0000E+00   0.0000E+00  0.000E+00  0.000E+00  0.000E+00  1.06000E+03  0.000E+00  2.000E+01  2.000E-03  4.979E-01
   2    4    5    10     1    0.0000E+00  0.0000E+00   0.0000E+00  0.000E+00  0.000E+00  0.000E+00  1.08000E+03  0.000E+00  2.000E+01  2.000E-03  1.000E+00





     0  LAKE CELLS ARE DRY.

 PERIOD     9     TIME STEP    10     TIME STEP LENGTH  1.7520E+05
 PERIOD TIME  1.7520E+06     TOTAL SIMULATION TIME  2.2776E+07


                 HYDROLOGIC BUDGET SUMMARIES FOR SIMULATED LAKES
     (ALL FLUID FLUXES ARE VOLUMES ADDED TO THE LAKE DURING PRESENT TIME STEP)
     ----------------------------------------------------------------------------------------
 LAKE    STAGE         VOLUME     VOL. CHANGE      PRECIP     EVAPORATION    SPECIFIED RUNOFF     COMPUTED RUNOFF    TOTAL RUNOFF
   1  1.074500E+03  1.509787E+01 -1.695083E+00  0.000000E+00  1.666942E+00   0.000000E+00          0.000000E+00      0.000000E+00

            GROUND WATER            SURFACE WATER        WATER          UZF INFIL.
 LAKE    INFLOW     OUTFLOW      INFLOW     OUTFLOW       USE        FROM LAKE
   1  0.0000E+00  0.0000E+00  0.0000E+00  0.0000E+00  0.0000E+00       2.8142E-02

      CONNECTED LAKE   TIME-STEP         STAGE-CHANGE          PERCENT
 LAKE    INFLUX      SURFACE AREA   TIME STEP  CUMULATIVE    DISCREPANCY
   1   0.0000E+00     2.3786E+02  -3.1863E-05  9.0207E-05      -0.000
 --------------------------------------------------------------------------------



            CUMULATIVE HYDROLOGIC BUDGET SUMMARIES FOR SIMULATED LAKES
     (ALL FLUID FLUXES ARE SUMS OF VOLUMES ADDED TO THE LAKE SINCE INITIAL TIME)
     ---------------------------------------------------------------------------
 LAKE       PRECIP       EVAP     SPECIFIED RUNOFF   COMPUTED RUNOFF   TOTAL RUNOFF
   1     0.0000E+00  1.6032E+06       0.0000E+00       0.0000E+00       0.0000E+00

            GROUND WATER            SURFACE WATER       UZF INFIL.
 LAKE    INFLOW     OUTFLOW      INFLOW     OUTFLOW     FROM LAKE
   1  0.0000E+00  0.0000E+00  1.9325E+08  4.8785E+07    1.4286E+08

         WATER    CONNECTED LAKE   CHANGE       PERCENT
 LAKE     USE         INFLUX       IN VOL.    DISCREPANCY
   1   0.0000E+00   0.0000E+00   1.5098E+01     -0.000
 --------------------------------------------------------------------------------

 UBDSV3 SAVING "           GW ET" ON UNIT  61 AT TIME STEP 10, STRESS PERIOD 9
 UBDSV3 SAVING "    UZF RECHARGE" ON UNIT  61 AT TIME STEP 10, STRESS PERIOD 9
 UBDSV3 SAVING " SURFACE LEAKAGE" ON UNIT  61 AT TIME STEP 10, STRESS PERIOD 9


UNSATURATED ZONE PACKAGE VOLUMETRIC BUDGET FOR  TIME STEP    10 STRESS PERIOD    9
  ------------------------------------------------------------------------------



     CUMULATIVE VOLUMES      L**3       RATES FOR THIS TIME STEP      L**3/T
     ------------------                 ------------------------

           IN:                                      IN:
           ---                                      ---
        INFILTRATION =  1541120904.4523          INFILTRATION =          25.2288

          OUT:                                     OUT:
          ----                                     ----
              UZF ET =  1406552642.3036                UZF ET =          37.4153
        UZF RECHARGE =   690714751.9173          UZF RECHARGE =           8.2043

            IN - OUT =  -556146489.7685              IN - OUT =         -20.3908

          STORAGE:                                 STORAGE:
          --------                                 --------
      STORAGE CHANGE =  -555378762.3471        STORAGE CHANGE =         -20.3834

 PERCENT DISCREPANCY IS DIFFERENCE BETWEEN IN-OUT MINUS CHANGE IN STORAGE
 DIVIDED BY THE AVERAGE OF IN AND OUT TIMES 100

 PERCENT DISCREPANCY =          -0.01     PERCENT DISCREPANCY =          -0.02






1
  VOLUMETRIC BUDGET FOR ENTIRE MODEL AT END OF TIME STEP   10, STRESS PERIOD   9
  ------------------------------------------------------------------------------

     CUMULATIVE VOLUMES      L**3       RATES FOR THIS TIME STEP      L**3/T
     ------------------                 ------------------------

           IN:                                      IN:
           ---                                      ---
             STORAGE     =   179127136.0000               STORAGE     =          11.9561
       CONSTANT HEAD     =           0.0000         CONSTANT HEAD     =           0.0000
               WELLS     =           0.0000                 WELLS     =           0.0000
     HEAD DEP BOUNDS     =     4885157.5000       HEAD DEP BOUNDS     =           0.2147
      STREAM LEAKAGE     =  1764934144.0000        STREAM LEAKAGE     =          73.3156
       LAKE  SEEPAGE     =           0.0000         LAKE  SEEPAGE     =           0.0000
        UZF RECHARGE     =   690714496.0000          UZF RECHARGE     =           8.2043
               GW ET     =           0.0000                 GW ET     =           0.0000
     SURFACE LEAKAGE     =           0.0000       SURFACE LEAKAGE     =           0.0000

                TOTAL IN =  2639661056.0000                  TOTAL IN =          93.6908

          OUT:                                     OUT:
          ----                                     ----
             STORAGE     =  1514907264.0000               STORAGE     =          40.0456
       CONSTANT HEAD     =           0.0000         CONSTANT HEAD     =           0.0000
               WELLS     =   306600000.0000                 WELLS     =          10.0000
     HEAD DEP BOUNDS     =     6941988.0000       HEAD DEP BOUNDS     =           0.3166
      STREAM LEAKAGE     =   398059584.0000        STREAM LEAKAGE     =          22.1084
       LAKE  SEEPAGE     =           0.0000         LAKE  SEEPAGE     =           0.0000
        UZF RECHARGE     =           0.0000          UZF RECHARGE     =           0.0000
               GW ET     =   325349344.0000                 GW ET     =          18.1079
     SURFACE LEAKAGE     =    87784496.0000       SURFACE LEAKAGE     =           3.1115

               TOTAL OUT =  2639642624.0000                 TOTAL OUT =          93.6901

                IN - OUT =       18432.0000                  IN - OUT =       6.5613E-04

     PERCENT DISCREPANCY =           0.00         PERCENT DISCREPANCY =           0.00






         TIME SUMMARY AT END OF TIME STEP   10 IN STRESS PERIOD    9
                    SECONDS     MINUTES      HOURS       DAYS        YEARS
                    -----------------------------------------------------------
   TIME STEP LENGTH 1.75200E+05  2920.0      48.667      2.0278     5.55175E-03
 STRESS PERIOD TIME 1.75200E+06  29200.      486.67      20.278     5.55175E-02
         TOTAL TIME 2.27760E+07 3.79600E+05  6326.7      263.61     0.72173    
1
 
 SOLVING FOR HEAD 
                                                   Max.-Head-Change                         Max.-Flux-Residual
  Residual-Control   Outer-Iter.   Inner-Iter.     Column Row Layer    Maximum-Head-Change  Column Row Layer    Maximum-Flux-Residual          L2-NORM 
          0                 1           2             3    2     2       0.6665251072E-01       3    2    2         0.1824592173E+01      0.6437754725E+01
          0                 2           2             6   13     2       0.4378983864E-02       6   13    2         0.1499178214E+00      0.4661494963E+00
          0                 3           1             6   13     2      -0.2331025236E-03       6   13    2        -0.8313258930E-02      0.2123976586E-01

    ------------------------------------------------
       NWT REQUIRED            3 OUTER ITERATIONS 
       AND A TOTAL OF          5 INNER ITERATIONS.
    ------------------------------------------------

 NO OUTPUT CONTROL FOR STRESS PERIOD    9   TIME STEP   11
 
 SOLVING FOR HEAD 
                                                   Max.-Head-Change                         Max.-Flux-Residual
  Residual-Control   Outer-Iter.   Inner-Iter.     Column Row Layer    Maximum-Head-Change  Column Row Layer    Maximum-Flux-Residual          L2-NORM 
          0                 1           2             3    2     2       0.6322725350E-01       3    2    2         0.1728055144E+01      0.5946988354E+01
          0                 2           2             6   13     2       0.3928299711E-02       6   13    2         0.1346473662E+00      0.4308567320E+00
          0                 3           1             6   13     2      -0.2095200978E-03       6   13    2        -0.7481801653E-02      0.1934851988E-01

    ------------------------------------------------
       NWT REQUIRED            3 OUTER ITERATIONS 
       AND A TOTAL OF          5 INNER ITERATIONS.
    ------------------------------------------------

 NO OUTPUT CONTROL FOR STRESS PERIOD    9   TIME STEP   12
 
 SOLVING FOR HEAD 
                                                   Max.-Head-Change                         Max.-Flux-Residual
  Residual-Control   Outer-Iter.   Inner-Iter.     Column Row Layer    Maximum-Head-Change  Column Row Layer    Maximum-Flux-Residual          L2-NORM 
          0                 1           2             3    2     2       0.5936464487E-01       3    2    2         0.1639259318E+01      0.6138044006E+01
          0                 2           2             6   13     2       0.4457483529E-02       6   13    2         0.1518578646E+00      0.4609200178E+00
          0                 3           1             6   13     2      -0.2367288520E-03       6   13    2        -0.8400608214E-02      0.2168355985E-01

    ------------------------------------------------
       NWT REQUIRED            3 OUTER ITERATIONS 
       AND A TOTAL OF          5 INNER ITERATIONS.
    ------------------------------------------------

 NO OUTPUT CONTROL FOR STRESS PERIOD    9   TIME STEP   13
 
 SOLVING FOR HEAD 
                                                   Max.-Head-Change                         Max.-Flux-Residual
  Residual-Control   Outer-Iter.   Inner-Iter.     Column Row Layer    Maximum-Head-Change  Column Row Layer    Maximum-Flux-Residual          L2-NORM 
          0                 1           2             3    2     2       0.5515633563E-01       6   13    2        -0.1611595461E+01      0.6207494359E+01
          0                 2           2             4    3     2       0.5186270100E-02       6   13    2         0.1524567532E+00      0.4789069379E+00
          0                 3           1             4    3     2      -0.2908717435E-03       4    3    2        -0.8695269372E-02      0.2322945903E-01

    ------------------------------------------------
       NWT REQUIRED            3 OUTER ITERATIONS 
       AND A TOTAL OF          5 INNER ITERATIONS.
    ------------------------------------------------

 NO OUTPUT CONTROL FOR STRESS PERIOD    9   TIME STEP   14
 
 SOLVING FOR HEAD 
                                                   Max.-Head-Change                         Max.-Flux-Residual
  Residual-Control   Outer-Iter.   Inner-Iter.     Column Row Layer    Maximum-Head-Change  Column Row Layer    Maximum-Flux-Residual          L2-NORM 
          0                 1           2             3    2     2       0.5142248915E-01       3    2    2         0.1430014314E+01      0.5773636875E+01
          0                 2           2             4    3     2       0.4819924919E-02       4    3    2         0.1396000913E+00      0.4380025361E+00
          0                 3           1             4    3     2      -0.2705665708E-03       4    3    2        -0.8103803509E-02      0.2097615429E-01

    ------------------------------------------------
       NWT REQUIRED            3 OUTER ITERATIONS 
       AND A TOTAL OF          5 INNER ITERATIONS.
    ------------------------------------------------

 OUTPUT CONTROL FOR STRESS PERIOD    9   TIME STEP   15
    PRINT BUDGET
    PRINT HEAD FOR ALL LAYERS
    SAVE HEAD FOR ALL LAYERS
    SAVE BUDGET

            WELLS   PERIOD    9   STEP  15
 WELL      1   LAYER   2   ROW     6   COL     4   RATE    -1.00000    
 WELL      2   LAYER   2   ROW     6   COL     5   RATE    -1.00000    
 WELL      3   LAYER   2   ROW     7   COL     4   RATE    -1.00000    
 WELL      4   LAYER   2   ROW     7   COL     5   RATE    -1.00000    
 WELL      5   LAYER   2   ROW     8   COL     4   RATE    -1.00000    
 WELL      6   LAYER   2   ROW     8   COL     5   RATE    -1.00000    
 WELL      7   LAYER   2   ROW     9   COL     4   RATE    -1.00000    
 WELL      8   LAYER   2   ROW     9   COL     5   RATE    -1.00000    
 WELL      9   LAYER   2   ROW    10   COL     4   RATE    -1.00000    
 WELL     10   LAYER   2   ROW    10   COL     5   RATE    -1.00000    

  HEAD DEP BOUNDS   PERIOD    9   STEP    15
 BOUNDARY      1   LAYER   2   ROW    13   COL     1   RATE   -0.311215    
 BOUNDARY      2   LAYER   2   ROW    14   COL     9   RATE    0.214678    



 STREAM LISTING     PERIOD      9   STEP       15

 LAYER ROW COL. STREAM  RCH.  FLOW INTO     FLOW TO   FLOW OUT OF   OVRLND.     DIRECT     STREAM       STREAM     STREAM     STREAM   STREAMBED  STREAMBED
                SEG.NO.  NO.  STRM. RCH.    AQUIFER    STRM. RCH.    RUNOFF     PRECIP       ET          HEAD       DEPTH      WIDTH   CONDCTNC.   GRADIENT

   2    1    1     1     1    1.2800E+02  1.3920E+00   1.2661E+02  0.000E+00  0.000E+00  0.000E+00  1.09502E+03  1.969E+00  2.409E+01  1.084E+00  4.280E-01
   2    2    2     1     2    1.2661E+02  4.8208E+00   1.2179E+02  0.000E+00  0.000E+00  0.000E+00  1.09001E+03  1.951E+00  2.387E+01  1.671E+00  9.618E-01
   2    3    3     1     3    1.2179E+02  6.9138E+00   1.1487E+02  0.000E+00  0.000E+00  0.000E+00  1.08434E+03  1.916E+00  2.344E+01  1.406E+00  1.639E+00
   2    3    4     1     4    1.1487E+02  6.2082E+00   1.0867E+02  0.000E+00  0.000E+00  0.000E+00  1.07928E+03  1.876E+00  2.294E+01  1.273E+00  1.625E+00
   2    4    5     2     1    9.8665E+01  0.0000E+00   9.8665E+01  0.000E+00  0.000E+00  0.000E+00  1.07469E+03  2.752E+00  1.200E+01  0.000E+00  1.917E+00
   2    5    6     2     2    9.8665E+01  3.4339E+00   9.5231E+01  0.000E+00  0.000E+00  0.000E+00  1.06923E+03  2.723E+00  1.200E+01  6.000E-01  1.908E+00
   2    6    6     2     3    9.5231E+01  3.3991E+00   9.1832E+01  0.000E+00  0.000E+00  0.000E+00  1.06446E+03  2.665E+00  1.200E+01  6.000E-01  1.888E+00
   2    7    6     2     4    9.1832E+01  3.3641E+00   8.8468E+01  0.000E+00  0.000E+00  0.000E+00  1.05968E+03  2.607E+00  1.200E+01  6.000E-01  1.869E+00
   2    8    6     2     5    8.8468E+01  3.3290E+00   8.5139E+01  0.000E+00  0.000E+00  0.000E+00  1.05491E+03  2.548E+00  1.200E+01  6.000E-01  1.849E+00
   2    3    5     3     1    1.0000E+01  2.8252E+00   7.1748E+00  0.000E+00  0.000E+00  0.000E+00  1.07555E+03  1.909E+00  9.636E+00  7.227E-01  1.955E+00
   2    3    6     3     2    7.1748E+00  2.4905E+00   4.6843E+00  0.000E+00  0.000E+00  0.000E+00  1.07264E+03  1.727E+00  8.909E+00  6.682E-01  1.864E+00
   2    3    7     3     3    4.6843E+00  1.9718E+00   2.7125E+00  0.000E+00  0.000E+00  0.000E+00  1.06987E+03  1.555E+00  8.218E+00  5.547E-01  1.777E+00
   2    4    8     3     4    2.7125E+00  2.2567E+00   4.5579E-01  0.000E+00  0.000E+00  0.000E+00  1.06682E+03  1.364E+00  7.455E+00  6.709E-01  1.682E+00
   2    5    8     3     5    4.5579E-01  4.5579E-01   0.0000E+00  0.000E+00  0.000E+00  0.000E+00  1.06362E+03  0.000E+00  6.655E+00  4.991E-01  1.582E+00
   2    6    8     3     6    0.0000E+00  0.0000E+00   0.0000E+00  0.000E+00  0.000E+00  0.000E+00  1.06055E+03  0.000E+00  6.145E+00  1.844E-01  1.000E+00
   2    5   10     4     1    1.0000E+01  9.0525E-01   9.0947E+00  0.000E+00  0.000E+00  0.000E+00  1.07835E+03  6.210E-01  1.000E+01  2.500E-01  1.207E+00
   2    5    9     4     2    9.0947E+00  1.7835E+00   7.3113E+00  0.000E+00  0.000E+00  0.000E+00  1.07148E+03  5.670E-01  1.000E+01  5.000E-01  1.189E+00
   2    6    8     4     3    7.3113E+00  1.2257E+00   6.0855E+00  0.000E+00  0.000E+00  0.000E+00  1.06368E+03  5.021E-01  1.000E+01  3.500E-01  1.167E+00
   2    6    8     5     1    6.0855E+00  1.4716E+00   4.6139E+00  0.000E+00  0.000E+00  0.000E+00  1.05854E+03  5.396E-01  1.039E+01  4.158E-01  1.180E+00
   2    7    7     5     2    4.6139E+00  1.4897E+00   3.1242E+00  0.000E+00  0.000E+00  0.000E+00  1.05398E+03  4.817E-01  8.557E+00  4.279E-01  1.161E+00
   2    8    7     5     3    3.1242E+00  8.2855E-01   2.2957E+00  0.000E+00  0.000E+00  0.000E+00  1.04968E+03  4.253E-01  6.911E+00  2.419E-01  1.142E+00
   2    8    6     5     4    2.2957E+00  4.9455E-01   1.8011E+00  0.000E+00  0.000E+00  0.000E+00  1.04664E+03  3.856E-01  5.843E+00  1.461E-01  1.129E+00
   2    9    6     6     1    8.6940E+01  3.3297E+00   8.3610E+01  0.000E+00  0.000E+00  0.000E+00  1.04528E+03  2.550E+00  1.200E+01  6.000E-01  1.850E+00
   2   10    7     6     2    8.3610E+01  3.2938E+00   8.0317E+01  0.000E+00  0.000E+00  0.000E+00  1.04067E+03  2.490E+00  1.200E+01  6.000E-01  1.830E+00
   2   11    7     6     3    8.0317E+01  2.2599E+00   7.8057E+01  0.000E+00  0.000E+00  0.000E+00  1.03608E+03  2.439E+00  1.200E+01  6.000E-01  1.255E+00
   2   12    7     6     4    7.8057E+01  1.0240E+00   7.7033E+01  0.000E+00  0.000E+00  0.000E+00  1.03150E+03  2.408E+00  1.200E+01  6.000E-01  5.689E-01
   2   13    7     6     5    7.7033E+01 -2.8780E-01   7.7320E+01  0.000E+00  0.000E+00  0.000E+00  1.02831E+03  2.401E+00  1.200E+01  2.400E-01 -3.997E-01
   2   14    9     7     1    1.5000E+02  2.8723E+00   1.4713E+02  0.000E+00  0.000E+00  0.000E+00  1.03986E+03  2.284E+00  5.528E+01  5.591E+00  1.712E-01
   2   13    8     7     2    1.4713E+02  3.5381E+00   1.4359E+02  0.000E+00  0.000E+00  0.000E+00  1.03477E+03  2.267E+00  5.520E+01  6.141E+00  1.921E-01
   2   13    7     7     3    1.4359E+02  9.1586E-01   1.4267E+02  0.000E+00  0.000E+00  0.000E+00  1.02967E+03  2.255E+00  5.515E+01  5.577E+00  5.474E-02
   2   13    6     8     1    2.1999E+02 -1.8082E-02   2.2026E+02  2.461E-01  0.000E+00  0.000E+00  1.02513E+03  3.253E+00  4.716E+01  4.806E+00 -1.254E-03
   2   13    5     8     2    2.2026E+02 -3.0862E+00   2.2359E+02  2.461E-01  0.000E+00  0.000E+00  1.01889E+03  3.263E+00  4.731E+01  4.821E+00 -2.134E-01
   2   13    4     8     3    2.2359E+02 -5.3247E+00   2.2916E+02  2.461E-01  0.000E+00  0.000E+00  1.01266E+03  3.287E+00  4.766E+01  4.857E+00 -3.655E-01
   2   13    3     8     4    2.2916E+02 -6.0157E+00   2.3542E+02  2.461E-01  0.000E+00  0.000E+00  1.00644E+03  3.319E+00  4.812E+01  4.904E+00 -4.089E-01
   2   13    2     8     5    2.3542E+02 -4.2082E+00   2.3988E+02  2.461E-01  0.000E+00  0.000E+00  1.00022E+03  3.347E+00  4.854E+01  4.946E+00 -2.836E-01
   2   13    1     8     6    2.3988E+02 -2.8296E+00   2.4286E+02  1.477E-01  0.000E+00  0.000E+00  9.95242E+02  3.367E+00  4.882E+01  2.985E+00 -3.160E-01
   2    4    5     9     1    0.0000E+00  0.0000E+00   0.0000E+00  0.000E+00  0.000E+00  0.000E+00  1.06000E+03  0.000E+00  2.000E+01  2.000E-03  4.868E-01
   2    4    5    10     1    0.0000E+00  0.0000E+00   0.0000E+00  0.000E+00  0.000E+00  0.000E+00  1.08000E+03  0.000E+00  2.000E+01  2.000E-03  1.000E+00





     0  LAKE CELLS ARE DRY.

 PERIOD     9     TIME STEP    15     TIME STEP LENGTH  1.7520E+05
 PERIOD TIME  2.6280E+06     TOTAL SIMULATION TIME  2.3652E+07


                 HYDROLOGIC BUDGET SUMMARIES FOR SIMULATED LAKES
     (ALL FLUID FLUXES ARE VOLUMES ADDED TO THE LAKE DURING PRESENT TIME STEP)
     ----------------------------------------------------------------------------------------
 LAKE    STAGE         VOLUME     VOL. CHANGE      PRECIP     EVAPORATION    SPECIFIED RUNOFF     COMPUTED RUNOFF    TOTAL RUNOFF
   1  1.074500E+03  8.888356E+00 -9.911051E-01  0.000000E+00  9.813550E-01   0.000000E+00          0.000000E+00      0.000000E+00

            GROUND WATER            SURFACE WATER        WATER          UZF INFIL.
 LAKE    INFLOW     OUTFLOW      INFLOW     OUTFLOW       USE        FROM LAKE
   1  0.0000E+00  0.0000E+00  0.0000E+00  0.0000E+00  0.0000E+00       9.7503E-03

      CONNECTED LAKE   TIME-STEP         STAGE-CHANGE          PERCENT
 LAKE    INFLUX      SURFACE AREA   TIME STEP  CUMULATIVE    DISCREPANCY
   1   0.0000E+00     1.4003E+02   5.3106E-05  5.3106E-05      -0.000
 --------------------------------------------------------------------------------



            CUMULATIVE HYDROLOGIC BUDGET SUMMARIES FOR SIMULATED LAKES
     (ALL FLUID FLUXES ARE SUMS OF VOLUMES ADDED TO THE LAKE SINCE INITIAL TIME)
     ---------------------------------------------------------------------------
 LAKE       PRECIP       EVAP     SPECIFIED RUNOFF   COMPUTED RUNOFF   TOTAL RUNOFF
   1     0.0000E+00  1.6033E+06       0.0000E+00       0.0000E+00       0.0000E+00

            GROUND WATER            SURFACE WATER       UZF INFIL.
 LAKE    INFLOW     OUTFLOW      INFLOW     OUTFLOW     FROM LAKE
   1  0.0000E+00  0.0000E+00  1.9325E+08  4.8785E+07    1.4286E+08

         WATER    CONNECTED LAKE   CHANGE       PERCENT
 LAKE     USE         INFLUX       IN VOL.    DISCREPANCY
   1   0.0000E+00   0.0000E+00   8.8884E+00     -0.000
 --------------------------------------------------------------------------------

 UBDSV3 SAVING "           GW ET" ON UNIT  61 AT TIME STEP 15, STRESS PERIOD 9
 UBDSV3 SAVING "    UZF RECHARGE" ON UNIT  61 AT TIME STEP 15, STRESS PERIOD 9
 UBDSV3 SAVING " SURFACE LEAKAGE" ON UNIT  61 AT TIME STEP 15, STRESS PERIOD 9


UNSATURATED ZONE PACKAGE VOLUMETRIC BUDGET FOR  TIME STEP    15 STRESS PERIOD    9
  ------------------------------------------------------------------------------



     CUMULATIVE VOLUMES      L**3       RATES FOR THIS TIME STEP      L**3/T
     ------------------                 ------------------------

           IN:                                      IN:
           ---                                      ---
        INFILTRATION =  1563250848.5146          INFILTRATION =          25.2815

          OUT:                                     OUT:
          ----                                     ----
              UZF ET =  1438932791.8856                UZF ET =          36.5556
        UZF RECHARGE =   697538909.4993          UZF RECHARGE =           7.5297

            IN - OUT =  -573220852.8703              IN - OUT =         -18.8039

          STORAGE:                                 STORAGE:
          --------                                 --------
      STORAGE CHANGE =  -572449648.7066        STORAGE CHANGE =         -18.7990

 PERCENT DISCREPANCY IS DIFFERENCE BETWEEN IN-OUT MINUS CHANGE IN STORAGE
 DIVIDED BY THE AVERAGE OF IN AND OUT TIMES 100

 PERCENT DISCREPANCY =          -0.01     PERCENT DISCREPANCY =          -0.01






1
              HEAD IN LAYER 1 AT END OF TIME STEP 15 IN STRESS PERIOD 9
  ---------------------------------------------------------------------------

           1       2       3       4       5       6       7       8       9      10
 ...................................................................................
   1  6999.00 6999.00 6999.00 6999.00 6999.00 6999.00 6999.00 6999.00 6999.00 6999.00
   2  6999.00 6999.00 6999.00 6999.00 6999.00 6999.00 6999.00 6999.00 6999.00 6999.00
   3  6999.00 6999.00 6999.00 6999.00 6999.00 6999.00 6999.00 6999.00 6999.00 6999.00
   4  6999.00 6999.00 6999.00 6999.00 1074.50 6999.00 6999.00 6999.00 6999.00 6999.00
   5  6999.00 6999.00 6999.00 6999.00 6999.00 6999.00 6999.00 6999.00 6999.00 6999.00
   6  6999.00 6999.00 6999.00 6999.00 6999.00 6999.00 6999.00 6999.00 6999.00 6999.00
   7  6999.00 6999.00 6999.00 6999.00 6999.00 6999.00 6999.00 6999.00 6999.00 6999.00
   8  6999.00 6999.00 6999.00 6999.00 6999.00 6999.00 6999.00 6999.00 6999.00 6999.00
   9  6999.00 6999.00 6999.00 6999.00 6999.00 6999.00 6999.00 6999.00 6999.00 6999.00
  10  6999.00 6999.00 6999.00 6999.00 6999.00 6999.00 6999.00 6999.00 6999.00 6999.00
  11  6999.00 6999.00 6999.00 6999.00 6999.00 6999.00 6999.00 6999.00 6999.00 6999.00
  12  6999.00 6999.00 6999.00 6999.00 6999.00 6999.00 6999.00 6999.00 6999.00 6999.00
  13  6999.00 6999.00 6999.00 6999.00 6999.00 6999.00 6999.00 6999.00 6999.00 6999.00
  14  6999.00 6999.00 6999.00 6999.00 6999.00 6999.00 6999.00 6999.00 6999.00 6999.00
  15  6999.00 6999.00 6999.00 6999.00 6999.00 6999.00 6999.00 6999.00 6999.00 6999.00
1
              HEAD IN LAYER 2 AT END OF TIME STEP 15 IN STRESS PERIOD 9
  ---------------------------------------------------------------------------

           1       2       3       4       5       6       7       8       9      10
 ...................................................................................
   1  1093.73 1088.96 6999.00 6999.00 6999.00 6999.00 6999.00 6999.00 6999.00 6999.00
   2  1088.32 1087.12 1080.32 6999.00 6999.00 1067.72 1067.05 1065.36 6999.00 6999.00
   3  6999.00 1075.72 1075.68 1071.10 1067.92 1066.47 1065.63 1063.73 6999.00 6999.00
   4  1061.87 1063.91 1064.73 1061.40 1058.54 1057.52 1057.61 1060.09 1058.05 6999.00
   5  1057.83 1055.73 1055.11 1054.19 1053.70 1054.11 1052.79 1053.24 1055.82 1057.81
   6  1053.72 1050.14 1048.61 1048.39 1048.77 1050.49 1050.14 1051.10 1052.63 1057.05
   7  1050.74 1045.12 1043.28 1043.35 1044.25 1046.54 1046.93 1048.00 1049.20 6999.00
   8  6999.00 1039.48 1038.37 1038.69 1039.76 1042.27 1042.74 1044.14 1045.36 6999.00
   9  6999.00 1033.58 1033.19 1033.84 1035.04 1037.57 1038.24 1038.46 1040.92 6999.00
  10  6999.00 1027.52 1027.87 1029.13 1030.63 1032.99 1035.15 1035.01 1037.42 1040.49
  11  6999.00 1019.90 1021.21 1024.51 1026.79 1029.49 1032.31 1032.75 1035.18 6999.00
  12  1003.26 1009.95 1014.27 1018.95 1022.80 1026.61 1029.79 1031.58 1034.80 6999.00
  13   996.19 1001.07 1007.67 1013.76 1019.53 1025.13 1029.51 1034.19 1036.74 6999.00
  14  6999.00 1007.11 1010.93 1015.89 1021.03 1025.94 1030.29 1035.23 1039.35 6999.00
  15  6999.00 6999.00 1018.67 1021.45 1025.08 1028.08 6999.00 6999.00 6999.00 6999.00

 HEAD WILL BE SAVED ON UNIT   58 AT END OF TIME STEP   15, STRESS PERIOD    9
1
  VOLUMETRIC BUDGET FOR ENTIRE MODEL AT END OF TIME STEP   15, STRESS PERIOD   9
  ------------------------------------------------------------------------------

     CUMULATIVE VOLUMES      L**3       RATES FOR THIS TIME STEP      L**3/T
     ------------------                 ------------------------

           IN:                                      IN:
           ---                                      ---
             STORAGE     =   187886144.0000               STORAGE     =          10.1358
       CONSTANT HEAD     =           0.0000         CONSTANT HEAD     =           0.0000
               WELLS     =           0.0000                 WELLS     =           0.0000
     HEAD DEP BOUNDS     =     5073219.5000       HEAD DEP BOUNDS     =           0.2147
      STREAM LEAKAGE     =  1826971264.0000        STREAM LEAKAGE     =          68.2935
       LAKE  SEEPAGE     =           0.0000         LAKE  SEEPAGE     =           0.0000
        UZF RECHARGE     =   697538624.0000          UZF RECHARGE     =           7.5297
               GW ET     =           0.0000                 GW ET     =           0.0000
     SURFACE LEAKAGE     =           0.0000       SURFACE LEAKAGE     =           0.0000

                TOTAL IN =  2717469184.0000                  TOTAL IN =          86.1737

          OUT:                                     OUT:
          ----                                     ----
             STORAGE     =  1547316224.0000               STORAGE     =          34.7105
       CONSTANT HEAD     =           0.0000         CONSTANT HEAD     =           0.0000
               WELLS     =   315360000.0000                 WELLS     =          10.0000
     HEAD DEP BOUNDS     =     7216530.0000       HEAD DEP BOUNDS     =           0.3112
      STREAM LEAKAGE     =   416938880.0000        STREAM LEAKAGE     =          21.7703
       LAKE  SEEPAGE     =           0.0000         LAKE  SEEPAGE     =           0.0000
        UZF RECHARGE     =           0.0000          UZF RECHARGE     =           0.0000
               GW ET     =   341202656.0000                 GW ET     =          18.0716
     SURFACE LEAKAGE     =    89416272.0000       SURFACE LEAKAGE     =           1.3093

               TOTAL OUT =  2717450496.0000                 TOTAL OUT =          86.1730

                IN - OUT =       18688.0000                  IN - OUT =       7.1716E-04

     PERCENT DISCREPANCY =           0.00         PERCENT DISCREPANCY =           0.00






         TIME SUMMARY AT END OF TIME STEP   15 IN STRESS PERIOD    9
                    SECONDS     MINUTES      HOURS       DAYS        YEARS
                    -----------------------------------------------------------
   TIME STEP LENGTH 1.75200E+05  2920.0      48.667      2.0278     5.55175E-03
 STRESS PERIOD TIME 2.62800E+06  43800.      730.00      30.417     8.32763E-02
         TOTAL TIME 2.36520E+07 3.94200E+05  6570.0      273.75     0.74949    
1
1
                            STRESS PERIOD NO.   10, LENGTH =   2628000.    
                            -----------------------------------------------

                              NUMBER OF TIME STEPS =    15

                               MULTIPLIER FOR DELT =     1.000

                            INITIAL TIME STEP SIZE =   175200.0    

      0 WELLS

 REUSING NON-PARAMETER GHB CELLS FROM LAST STRESS PERIOD

      2 GHB CELLS

 REUSING STREAM SEGMENT DATA FROM LAST STRESS PERIOD



            AREAL INFILTRATION RATE
 READING ON UNIT   19 WITH FORMAT: (10F4.0)            

            1           2           3           4           5           6           7           8           9          10
 ........................................................................................................................
   1   2.0000E-09  4.0000E-09   0.000       0.000       0.000       0.000       0.000       0.000       0.000       0.000    
   2   4.0000E-09  2.0000E-09  4.0000E-09   0.000       0.000      1.6000E-08  1.6000E-08  1.0000E-08   0.000       0.000    
   3    0.000      1.0000E-08  2.0000E-09  2.0000E-09  1.6000E-08  1.6000E-08  1.0000E-08  1.0000E-08   0.000       0.000    
   4   1.6000E-08  1.0000E-08  2.0000E-09  2.0000E-09  2.0000E-09  2.0000E-09  2.0000E-09  2.0000E-09  4.0000E-09   0.000    
   5   1.6000E-08  1.0000E-08  2.0000E-09  2.0000E-09  2.0000E-09  2.0000E-09  2.0000E-09  2.0000E-09  2.0000E-09  2.0000E-09
   6   1.6000E-08  1.0000E-08  1.0000E-08  4.0000E-09  4.0000E-09  2.0000E-09  2.0000E-09  2.0000E-09  2.0000E-09  1.0000E-08
   7   1.6000E-08  1.0000E-08  1.0000E-08  4.0000E-09  4.0000E-09  2.0000E-09  2.0000E-09  4.0000E-09  4.0000E-09   0.000    
   8    0.000      1.0000E-08  1.0000E-08  4.0000E-09  4.0000E-09  2.0000E-09  2.0000E-09  4.0000E-09  1.0000E-08   0.000    
   9    0.000      1.0000E-08  1.0000E-08  4.0000E-09  4.0000E-09  2.0000E-09  2.0000E-09  4.0000E-09  1.0000E-08   0.000    
  10    0.000      1.0000E-08  1.0000E-08  4.0000E-09  4.0000E-09  2.0000E-09  2.0000E-09  4.0000E-09  1.0000E-08  1.6000E-08
  11    0.000      2.0000E-09  2.0000E-09  2.0000E-09  2.0000E-09  2.0000E-09  2.0000E-09  4.0000E-09  1.0000E-08   0.000    
  12   2.0000E-09  2.0000E-09  2.0000E-09  2.0000E-09  2.0000E-09  2.0000E-09  2.0000E-09  2.0000E-09  4.0000E-09   0.000    
  13   2.0000E-09  2.0000E-09  4.0000E-09  4.0000E-09  4.0000E-09  4.0000E-09  4.0000E-09  2.0000E-09  2.0000E-09   0.000    
  14    0.000      4.0000E-09  1.0000E-08  1.0000E-08  1.0000E-08  1.0000E-08  1.0000E-08  4.0000E-09  2.0000E-09   0.000    
  15    0.000       0.000      1.6000E-08  1.6000E-08  1.6000E-08  1.6000E-08   0.000       0.000       0.000       0.000    

USING ET RATE FROM PREVIOUS STRESS PERIOD. CURRENT PERIOD IS:      10

 USING ET EXTINCTION DEPTH FROM PREVIOUS STRESS PERIOD. CURRENT PERIOD IS:      10

 USING EXTINCTION WATER CONTENT FROM PREVIOUS STRESS PERIOD. CURRENT PERIOD IS:      10




 If any subsequent steady-state stress periods, min. and max. stages for each lake will be read in Record 9a.




 REUSING LAKE CONFIGURATION DATA FROM LAST STRESS PERIOD


 LAKE       PRECIP     EVAP     RUNOFF   WITHDRAW   BOTTOM     AREA
----------------------------------------------------------------------
   1     0.000E+00 4.000E-08 0.000E+00  0.000E+00 1.074E+03 2.500E+07




         C               INTERFACE CONDUCTANCES BETWEEN LAKE AND AQUIFER CELLS
   L     O          (IF TYPE = 6, CONDUCTANCE (L^2/T) IS BETWEEN AQUIFER CELL AND OVERLYING LAKE CELL.)
   A     L  L  T    (IF TYPE = 1 TO 4, CONDUCTANCES ARE PER UNIT SATURATED THICKNESS (L/T).)
   Y  R  U  A  Y
   E  O  M  K  P                        LAKEBED      C O N D U C T A N C E S
   R  W  N  E  E     DELTA Y   DELTA X  LEAKANCE   LAKEBED   AQUIFER  COMBINED
 _______________________________________________________________________________
   1  4  4  1  2    5.00E+03  5.00E+03  5.00E-02  2.50E+02  6.00E-03  6.00E-03
   1  3  5  1  3    5.00E+03  5.00E+03  5.00E-02  2.50E+02  1.20E-03  1.20E-03
   2  4  5  1  6    5.00E+03  5.00E+03  5.00E-02  1.25E+06  9.42E+00  9.42E+00
   1  5  5  1  4    5.00E+03  5.00E+03  5.00E-02  2.50E+02  6.00E-03  6.00E-03
   1  4  6  1  1    5.00E+03  5.00E+03  5.00E-02  2.50E+02  6.00E-03  6.00E-03
 
      DEAD POOL STORAGE FOR LAKE    1 BELOW SEGMENT   10 IS EQUAL TO     0.1200000000E+09
 
      LAKE     INFLOWING STREAM SEGMENT
         1                  9

 MAXIMUM NUMBER OF STREAMS INFLOWING TO A LAKE IS    1

      LAKE     OUTFLOWING STREAM SEGMENT
         1                 10

 MAXIMUM NUMBER OF STREAMS OUTFLOWING FROM A LAKE IS    1

 
 SOLVING FOR HEAD 
                                                   Max.-Head-Change                         Max.-Flux-Residual
  Residual-Control   Outer-Iter.   Inner-Iter.     Column Row Layer    Maximum-Head-Change  Column Row Layer    Maximum-Flux-Residual          L2-NORM 
          0                 1           2             4    8     2       0.7386912946E-01       4    8    2         0.1944616985E+01      0.7527587851E+01
          0                 2           2             5   10     2      -0.5792474027E-02       5   10    2        -0.1721048035E+00      0.5206797843E+00
          0                 3           1             5   10     2       0.3227050812E-03       5   10    2         0.1031786568E-01      0.2249801604E-01

    ------------------------------------------------
       NWT REQUIRED            3 OUTER ITERATIONS 
       AND A TOTAL OF          5 INNER ITERATIONS.
    ------------------------------------------------

 NO OUTPUT CONTROL FOR STRESS PERIOD   10   TIME STEP    1
 
 SOLVING FOR HEAD 
                                                   Max.-Head-Change                         Max.-Flux-Residual
  Residual-Control   Outer-Iter.   Inner-Iter.     Column Row Layer    Maximum-Head-Change  Column Row Layer    Maximum-Flux-Residual          L2-NORM 
          0                 1           2             4    8     2       0.7280321797E-01       4    8    2         0.1917920319E+01      0.7436675978E+01
          0                 2           2             5   10     2      -0.5496640166E-02       5   10    2        -0.1627454466E+00      0.5195245716E+00
          0                 3           1             5   10     2       0.3060050596E-03       5   10    2         0.9756745890E-02      0.2289733075E-01

    ------------------------------------------------
       NWT REQUIRED            3 OUTER ITERATIONS 
       AND A TOTAL OF          5 INNER ITERATIONS.
    ------------------------------------------------

 NO OUTPUT CONTROL FOR STRESS PERIOD   10   TIME STEP    2
 
 SOLVING FOR HEAD 
                                                   Max.-Head-Change                         Max.-Flux-Residual
  Residual-Control   Outer-Iter.   Inner-Iter.     Column Row Layer    Maximum-Head-Change  Column Row Layer    Maximum-Flux-Residual          L2-NORM 
          0                 1           2             4    8     2       0.7154510976E-01       4    8    2         0.1885482027E+01      0.7135989057E+01
          0                 2           2             5   10     2      -0.5237108585E-02       5   10    2        -0.1545577152E+00      0.4953703713E+00
          0                 3           1             5   10     2       0.2913518119E-03       5   10    2         0.9265868233E-02      0.2155932194E-01

    ------------------------------------------------
       NWT REQUIRED            3 OUTER ITERATIONS 
       AND A TOTAL OF          5 INNER ITERATIONS.
    ------------------------------------------------

 NO OUTPUT CONTROL FOR STRESS PERIOD   10   TIME STEP    3
 
 SOLVING FOR HEAD 
                                                   Max.-Head-Change                         Max.-Flux-Residual
  Residual-Control   Outer-Iter.   Inner-Iter.     Column Row Layer    Maximum-Head-Change  Column Row Layer    Maximum-Flux-Residual          L2-NORM 
          0                 1           2             4    8     2       0.7044887884E-01       4    8    2         0.1857806807E+01      0.6888172073E+01
          0                 2           2             5   10     2      -0.5007613919E-02       5   10    2        -0.1473585067E+00      0.4751719502E+00
          0                 3           1             5   10     2       0.2784150233E-03       5   10    2         0.8834256180E-02      0.2044296304E-01

    ------------------------------------------------
       NWT REQUIRED            3 OUTER ITERATIONS 
       AND A TOTAL OF          5 INNER ITERATIONS.
    ------------------------------------------------

 NO OUTPUT CONTROL FOR STRESS PERIOD   10   TIME STEP    4
 
 SOLVING FOR HEAD 
                                                   Max.-Head-Change                         Max.-Flux-Residual
  Residual-Control   Outer-Iter.   Inner-Iter.     Column Row Layer    Maximum-Head-Change  Column Row Layer    Maximum-Flux-Residual          L2-NORM 
          0                 1           2             4    8     2       0.6933432248E-01       4    8    2         0.1829272116E+01      0.6794060336E+01
          0                 2           2             4    3     2       0.4855689990E-02       5   10    2        -0.1409961903E+00      0.4746992302E+00
          0                 3           1             4    3     2      -0.2752021698E-03       5   10    2         0.8452816178E-02      0.2083454254E-01

    ------------------------------------------------
       NWT REQUIRED            3 OUTER ITERATIONS 
       AND A TOTAL OF          5 INNER ITERATIONS.
    ------------------------------------------------

 OUTPUT CONTROL FOR STRESS PERIOD   10   TIME STEP    5
    PRINT BUDGET
    SAVE BUDGET

  HEAD DEP BOUNDS   PERIOD   10   STEP     5
 BOUNDARY      1   LAYER   2   ROW    13   COL     1   RATE   -0.306714    
 BOUNDARY      2   LAYER   2   ROW    14   COL     9   RATE    0.214688    



 STREAM LISTING     PERIOD     10   STEP        5

 LAYER ROW COL. STREAM  RCH.  FLOW INTO     FLOW TO   FLOW OUT OF   OVRLND.     DIRECT     STREAM       STREAM     STREAM     STREAM   STREAMBED  STREAMBED
                SEG.NO.  NO.  STRM. RCH.    AQUIFER    STRM. RCH.    RUNOFF     PRECIP       ET          HEAD       DEPTH      WIDTH   CONDCTNC.   GRADIENT

   2    1    1     1     1    1.1093E+02  1.3458E+00   1.0958E+02  0.000E+00  0.000E+00  0.000E+00  1.09491E+03  1.867E+00  2.282E+01  1.027E+00  4.368E-01
   2    2    2     1     2    1.0958E+02  4.6633E+00   1.0492E+02  0.000E+00  0.000E+00  0.000E+00  1.08991E+03  1.848E+00  2.259E+01  1.581E+00  9.831E-01
   2    3    3     1     3    1.0492E+02  6.3921E+00   9.8526E+01  0.000E+00  0.000E+00  0.000E+00  1.08423E+03  1.811E+00  2.214E+01  1.329E+00  1.604E+00
   2    3    4     1     4    9.8526E+01  5.7560E+00   9.2770E+01  0.000E+00  0.000E+00  0.000E+00  1.07919E+03  1.784E+00  2.168E+01  1.203E+00  1.595E+00
   2    4    5     2     1    8.2770E+01  0.0000E+00   8.2770E+01  0.000E+00  0.000E+00  0.000E+00  1.07441E+03  2.477E+00  1.200E+01  0.000E+00  1.826E+00
   2    5    6     2     2    8.2770E+01  3.2683E+00   7.9501E+01  0.000E+00  0.000E+00  0.000E+00  1.06896E+03  2.447E+00  1.200E+01  6.000E-01  1.816E+00
   2    6    6     2     3    7.9501E+01  3.2327E+00   7.6269E+01  0.000E+00  0.000E+00  0.000E+00  1.06418E+03  2.388E+00  1.200E+01  6.000E-01  1.796E+00
   2    7    6     2     4    7.6269E+01  3.1970E+00   7.3072E+01  0.000E+00  0.000E+00  0.000E+00  1.05940E+03  2.328E+00  1.200E+01  6.000E-01  1.776E+00
   2    8    6     2     5    7.3072E+01  3.1610E+00   6.9911E+01  0.000E+00  0.000E+00  0.000E+00  1.05463E+03  2.268E+00  1.200E+01  6.000E-01  1.756E+00
   2    3    5     3     1    1.0000E+01  2.8252E+00   7.1748E+00  0.000E+00  0.000E+00  0.000E+00  1.07555E+03  1.909E+00  9.636E+00  7.227E-01  1.955E+00
   2    3    6     3     2    7.1748E+00  2.4905E+00   4.6843E+00  0.000E+00  0.000E+00  0.000E+00  1.07264E+03  1.727E+00  8.909E+00  6.682E-01  1.864E+00
   2    3    7     3     3    4.6843E+00  1.9718E+00   2.7125E+00  0.000E+00  0.000E+00  0.000E+00  1.06987E+03  1.555E+00  8.218E+00  5.547E-01  1.777E+00
   2    4    8     3     4    2.7125E+00  2.2567E+00   4.5579E-01  0.000E+00  0.000E+00  0.000E+00  1.06682E+03  1.364E+00  7.455E+00  6.709E-01  1.682E+00
   2    5    8     3     5    4.5579E-01  4.5579E-01   0.0000E+00  0.000E+00  0.000E+00  0.000E+00  1.06362E+03  0.000E+00  6.655E+00  4.991E-01  1.582E+00
   2    6    8     3     6    0.0000E+00  0.0000E+00   0.0000E+00  0.000E+00  0.000E+00  0.000E+00  1.06055E+03  0.000E+00  6.145E+00  1.844E-01  1.000E+00
   2    5   10     4     1    1.0000E+01  9.0525E-01   9.0947E+00  0.000E+00  0.000E+00  0.000E+00  1.07835E+03  6.210E-01  1.000E+01  2.500E-01  1.207E+00
   2    5    9     4     2    9.0947E+00  1.7835E+00   7.3113E+00  0.000E+00  0.000E+00  0.000E+00  1.07148E+03  5.670E-01  1.000E+01  5.000E-01  1.189E+00
   2    6    8     4     3    7.3113E+00  1.2257E+00   6.0855E+00  0.000E+00  0.000E+00  0.000E+00  1.06368E+03  5.021E-01  1.000E+01  3.500E-01  1.167E+00
   2    6    8     5     1    6.0855E+00  1.4716E+00   4.6139E+00  0.000E+00  0.000E+00  0.000E+00  1.05854E+03  5.396E-01  1.039E+01  4.158E-01  1.180E+00
   2    7    7     5     2    4.6139E+00  1.4897E+00   3.1242E+00  0.000E+00  0.000E+00  0.000E+00  1.05398E+03  4.817E-01  8.557E+00  4.279E-01  1.161E+00
   2    8    7     5     3    3.1242E+00  8.2855E-01   2.2957E+00  0.000E+00  0.000E+00  0.000E+00  1.04968E+03  4.253E-01  6.911E+00  2.419E-01  1.142E+00
   2    8    6     5     4    2.2957E+00  4.9455E-01   1.8011E+00  0.000E+00  0.000E+00  0.000E+00  1.04664E+03  3.856E-01  5.843E+00  1.461E-01  1.129E+00
   2    9    6     6     1    7.1712E+01  3.1604E+00   6.8551E+01  0.000E+00  0.000E+00  0.000E+00  1.04499E+03  2.267E+00  1.200E+01  6.000E-01  1.756E+00
   2   10    7     6     2    6.8551E+01  3.1235E+00   6.5428E+01  0.000E+00  0.000E+00  0.000E+00  1.04039E+03  2.206E+00  1.200E+01  6.000E-01  1.735E+00
   2   11    7     6     3    6.5428E+01  2.1142E+00   6.3314E+01  0.000E+00  0.000E+00  0.000E+00  1.03579E+03  2.154E+00  1.200E+01  6.000E-01  1.175E+00
   2   12    7     6     4    6.3314E+01  9.0102E-01   6.2413E+01  0.000E+00  0.000E+00  0.000E+00  1.03121E+03  2.123E+00  1.200E+01  6.000E-01  5.006E-01
   2   13    7     6     5    6.2413E+01 -3.4649E-01   6.2759E+01  0.000E+00  0.000E+00  0.000E+00  1.02803E+03  2.118E+00  1.200E+01  2.400E-01 -4.812E-01
   2   14    9     7     1    1.5000E+02  2.8738E+00   1.4713E+02  0.000E+00  0.000E+00  0.000E+00  1.03986E+03  2.284E+00  5.528E+01  5.591E+00  1.713E-01
   2   13    8     7     2    1.4713E+02  3.5552E+00   1.4357E+02  0.000E+00  0.000E+00  0.000E+00  1.03477E+03  2.266E+00  5.520E+01  6.141E+00  1.930E-01
   2   13    7     7     3    1.4357E+02  1.1306E+00   1.4244E+02  0.000E+00  0.000E+00  0.000E+00  1.02967E+03  2.254E+00  5.514E+01  5.576E+00  6.758E-02
   2   13    6     8     1    2.0520E+02  1.7300E-01   2.0518E+02  1.510E-01  0.000E+00  0.000E+00  1.02504E+03  3.168E+00  4.594E+01  4.681E+00  1.232E-02
   2   13    5     8     2    2.0518E+02 -2.9503E+00   2.0828E+02  1.510E-01  0.000E+00  0.000E+00  1.01880E+03  3.177E+00  4.607E+01  4.694E+00 -2.095E-01
   2   13    4     8     3    2.0828E+02 -5.3830E+00   2.1381E+02  1.510E-01  0.000E+00  0.000E+00  1.01258E+03  3.202E+00  4.642E+01  4.731E+00 -3.793E-01
   2   13    3     8     4    2.1381E+02 -6.0272E+00   2.1999E+02  1.510E-01  0.000E+00  0.000E+00  1.00636E+03  3.235E+00  4.690E+01  4.780E+00 -4.203E-01
   2   13    2     8     5    2.1999E+02 -3.9364E+00   2.2408E+02  1.510E-01  0.000E+00  0.000E+00  1.00014E+03  3.263E+00  4.732E+01  4.822E+00 -2.721E-01
   2   13    1     8     6    2.2408E+02 -2.6609E+00   2.2683E+02  9.061E-02  0.000E+00  0.000E+00  9.95157E+02  3.282E+00  4.759E+01  2.910E+00 -3.048E-01
   2    4    5     9     1    0.0000E+00  0.0000E+00   0.0000E+00  0.000E+00  0.000E+00  0.000E+00  1.06000E+03  0.000E+00  2.000E+01  2.000E-03  4.745E-01
   2    4    5    10     1    0.0000E+00  0.0000E+00   0.0000E+00  0.000E+00  0.000E+00  0.000E+00  1.08000E+03  0.000E+00  2.000E+01  2.000E-03  1.000E+00





     0  LAKE CELLS ARE DRY.

 PERIOD    10     TIME STEP     5     TIME STEP LENGTH  1.7520E+05
 PERIOD TIME  8.7600E+05     TOTAL SIMULATION TIME  2.4528E+07


                 HYDROLOGIC BUDGET SUMMARIES FOR SIMULATED LAKES
     (ALL FLUID FLUXES ARE VOLUMES ADDED TO THE LAKE DURING PRESENT TIME STEP)
     ----------------------------------------------------------------------------------------
 LAKE    STAGE         VOLUME     VOL. CHANGE      PRECIP     EVAPORATION    SPECIFIED RUNOFF     COMPUTED RUNOFF    TOTAL RUNOFF
   1  1.074500E+03  5.245980E+00 -5.825996E-01  0.000000E+00  5.792037E-01   0.000000E+00          0.000000E+00      0.000000E+00

            GROUND WATER            SURFACE WATER        WATER          UZF INFIL.
 LAKE    INFLOW     OUTFLOW      INFLOW     OUTFLOW       USE        FROM LAKE
   1  0.0000E+00  0.0000E+00  0.0000E+00  0.0000E+00  0.0000E+00       3.3958E-03

      CONNECTED LAKE   TIME-STEP         STAGE-CHANGE          PERCENT
 LAKE    INFLUX      SURFACE AREA   TIME STEP  CUMULATIVE    DISCREPANCY
   1   0.0000E+00     8.2649E+01   3.1344E-05  3.1344E-05       0.000
 --------------------------------------------------------------------------------



            CUMULATIVE HYDROLOGIC BUDGET SUMMARIES FOR SIMULATED LAKES
     (ALL FLUID FLUXES ARE SUMS OF VOLUMES ADDED TO THE LAKE SINCE INITIAL TIME)
     ---------------------------------------------------------------------------
 LAKE       PRECIP       EVAP     SPECIFIED RUNOFF   COMPUTED RUNOFF   TOTAL RUNOFF
   1     0.0000E+00  1.6033E+06       0.0000E+00       0.0000E+00       0.0000E+00

            GROUND WATER            SURFACE WATER       UZF INFIL.
 LAKE    INFLOW     OUTFLOW      INFLOW     OUTFLOW     FROM LAKE
   1  0.0000E+00  0.0000E+00  1.9325E+08  4.8785E+07    1.4286E+08

         WATER    CONNECTED LAKE   CHANGE       PERCENT
 LAKE     USE         INFLUX       IN VOL.    DISCREPANCY
   1   0.0000E+00   0.0000E+00   5.2460E+00     -0.000
 --------------------------------------------------------------------------------

 UBDSV3 SAVING "           GW ET" ON UNIT  61 AT TIME STEP 5, STRESS PERIOD 10
 UBDSV3 SAVING "    UZF RECHARGE" ON UNIT  61 AT TIME STEP 5, STRESS PERIOD 10
 UBDSV3 SAVING " SURFACE LEAKAGE" ON UNIT  61 AT TIME STEP 5, STRESS PERIOD 10


UNSATURATED ZONE PACKAGE VOLUMETRIC BUDGET FOR  TIME STEP     5 STRESS PERIOD   10
  ------------------------------------------------------------------------------



     CUMULATIVE VOLUMES      L**3       RATES FOR THIS TIME STEP      L**3/T
     ------------------                 ------------------------

           IN:                                      IN:
           ---                                      ---
        INFILTRATION =  1578023018.1363          INFILTRATION =          16.8665

          OUT:                                     OUT:
          ----                                     ----
              UZF ET =  1465210080.6871                UZF ET =          26.5978
        UZF RECHARGE =   704216089.0051          UZF RECHARGE =           7.3055

            IN - OUT =  -591403151.5559              IN - OUT =         -17.0368

          STORAGE:                                 STORAGE:
          --------                                 --------
      STORAGE CHANGE =  -590629479.0562        STORAGE CHANGE =         -17.0296

 PERCENT DISCREPANCY IS DIFFERENCE BETWEEN IN-OUT MINUS CHANGE IN STORAGE
 DIVIDED BY THE AVERAGE OF IN AND OUT TIMES 100

 PERCENT DISCREPANCY =          -0.01     PERCENT DISCREPANCY =          -0.02






1
  VOLUMETRIC BUDGET FOR ENTIRE MODEL AT END OF TIME STEP    5, STRESS PERIOD  10
  ------------------------------------------------------------------------------

     CUMULATIVE VOLUMES      L**3       RATES FOR THIS TIME STEP      L**3/T
     ------------------                 ------------------------

           IN:                                      IN:
           ---                                      ---
             STORAGE     =   195748528.0000               STORAGE     =           8.4924
       CONSTANT HEAD     =           0.0000         CONSTANT HEAD     =           0.0000
               WELLS     =           0.0000                 WELLS     =           0.0000
     HEAD DEP BOUNDS     =     5261277.5000       HEAD DEP BOUNDS     =           0.2147
      STREAM LEAKAGE     =  1885737600.0000        STREAM LEAKAGE     =          66.2468
       LAKE  SEEPAGE     =           0.0000         LAKE  SEEPAGE     =           0.0000
        UZF RECHARGE     =   704215808.0000          UZF RECHARGE     =           7.3055
               GW ET     =           0.0000                 GW ET     =           0.0000
     SURFACE LEAKAGE     =           0.0000       SURFACE LEAKAGE     =           0.0000

                TOTAL IN =  2790963200.0000                  TOTAL IN =          82.2593

          OUT:                                     OUT:
          ----                                     ----
             STORAGE     =  1584960512.0000               STORAGE     =          41.4432
       CONSTANT HEAD     =           0.0000         CONSTANT HEAD     =           0.0000
               WELLS     =   315360000.0000                 WELLS     =           0.0000
     HEAD DEP BOUNDS     =     7486699.0000       HEAD DEP BOUNDS     =           0.3067
      STREAM LEAKAGE     =   435699680.0000        STREAM LEAKAGE     =          21.3043
       LAKE  SEEPAGE     =           0.0000         LAKE  SEEPAGE     =           0.0000
        UZF RECHARGE     =           0.0000          UZF RECHARGE     =           0.0000
               GW ET     =   357173152.0000                 GW ET     =          18.3925
     SURFACE LEAKAGE     =    90263784.0000       SURFACE LEAKAGE     =           0.8120

               TOTAL OUT =  2790944000.0000                 TOTAL OUT =          82.2587

                IN - OUT =       19200.0000                  IN - OUT =       6.3324E-04

     PERCENT DISCREPANCY =           0.00         PERCENT DISCREPANCY =           0.00






         TIME SUMMARY AT END OF TIME STEP    5 IN STRESS PERIOD   10
                    SECONDS     MINUTES      HOURS       DAYS        YEARS
                    -----------------------------------------------------------
   TIME STEP LENGTH 1.75200E+05  2920.0      48.667      2.0278     5.55175E-03
 STRESS PERIOD TIME 8.76000E+05  14600.      243.33      10.139     2.77588E-02
         TOTAL TIME 2.45280E+07 4.08800E+05  6813.3      283.89     0.77725    
1
 
 SOLVING FOR HEAD 
                                                   Max.-Head-Change                         Max.-Flux-Residual
  Residual-Control   Outer-Iter.   Inner-Iter.     Column Row Layer    Maximum-Head-Change  Column Row Layer    Maximum-Flux-Residual          L2-NORM 
          0                 1           2             4    3     2      -0.8110278859E-01       4    3    2        -0.2235159876E+01      0.7456654296E+01
          0                 2           2             4    3     2       0.7672518667E-02       4    3    2         0.2191772653E+00      0.5650870533E+00
          0                 3           1             4    3     2      -0.4300842489E-03       4    3    2        -0.1273710628E-01      0.2734280881E-01

    ------------------------------------------------
       NWT REQUIRED            3 OUTER ITERATIONS 
       AND A TOTAL OF          5 INNER ITERATIONS.
    ------------------------------------------------

 NO OUTPUT CONTROL FOR STRESS PERIOD   10   TIME STEP    6
 
 SOLVING FOR HEAD 
                                                   Max.-Head-Change                         Max.-Flux-Residual
  Residual-Control   Outer-Iter.   Inner-Iter.     Column Row Layer    Maximum-Head-Change  Column Row Layer    Maximum-Flux-Residual          L2-NORM 
          0                 1           2             4    3     2      -0.7679662038E-01       4    3    2        -0.2114092021E+01      0.7097553069E+01
          0                 2           2             4    3     2       0.7268206048E-02       4    3    2         0.2074409261E+00      0.5357408347E+00
          0                 3           1             4    3     2      -0.4077644960E-03       4    3    2        -0.1206825272E-01      0.2586707155E-01

    ------------------------------------------------
       NWT REQUIRED            3 OUTER ITERATIONS 
       AND A TOTAL OF          5 INNER ITERATIONS.
    ------------------------------------------------

 NO OUTPUT CONTROL FOR STRESS PERIOD   10   TIME STEP    7
 
 SOLVING FOR HEAD 
                                                   Max.-Head-Change                         Max.-Flux-Residual
  Residual-Control   Outer-Iter.   Inner-Iter.     Column Row Layer    Maximum-Head-Change  Column Row Layer    Maximum-Flux-Residual          L2-NORM 
          0                 1           2             4    3     2      -0.7271234614E-01       4    3    2        -0.1999576062E+01      0.6793493726E+01
          0                 2           2             4    3     2       0.6884740034E-02       4    3    2         0.1963323698E+00      0.5090685853E+00
          0                 3           1             4    3     2      -0.3865824177E-03       4    3    2        -0.1143430664E-01      0.2427386311E-01

    ------------------------------------------------
       NWT REQUIRED            3 OUTER ITERATIONS 
       AND A TOTAL OF          5 INNER ITERATIONS.
    ------------------------------------------------

 NO OUTPUT CONTROL FOR STRESS PERIOD   10   TIME STEP    8
 
 SOLVING FOR HEAD 
                                                   Max.-Head-Change                         Max.-Flux-Residual
  Residual-Control   Outer-Iter.   Inner-Iter.     Column Row Layer    Maximum-Head-Change  Column Row Layer    Maximum-Flux-Residual          L2-NORM 
          0                 1           2             4    3     2      -0.8746295705E-01       4    3    2        -0.2400387389E+01      0.7096137072E+01
          0                 2           2             4    3     2       0.8276360474E-02       4    3    2         0.2356399339E+00      0.5549057031E+00
          0                 3           1             4    3     2      -0.4644944847E-03       4    3    2        -0.1372169792E-01      0.2760431932E-01

    ------------------------------------------------
       NWT REQUIRED            3 OUTER ITERATIONS 
       AND A TOTAL OF          5 INNER ITERATIONS.
    ------------------------------------------------

 NO OUTPUT CONTROL FOR STRESS PERIOD   10   TIME STEP    9
 
 SOLVING FOR HEAD 
                                                   Max.-Head-Change                         Max.-Flux-Residual
  Residual-Control   Outer-Iter.   Inner-Iter.     Column Row Layer    Maximum-Head-Change  Column Row Layer    Maximum-Flux-Residual          L2-NORM 
          0                 1           2             4    3     2      -0.8997720446E-01       4    3    2        -0.2466088110E+01      0.7020988754E+01
          0                 2           2             4    3     2       0.8540582915E-02       4    3    2         0.2429358773E+00      0.5550993210E+00
          0                 3           1             4    3     2      -0.4818809861E-03       4    3    2        -0.1422892931E-01      0.2794226841E-01

    ------------------------------------------------
       NWT REQUIRED            3 OUTER ITERATIONS 
       AND A TOTAL OF          5 INNER ITERATIONS.
    ------------------------------------------------

 OUTPUT CONTROL FOR STRESS PERIOD   10   TIME STEP   10
    PRINT BUDGET
    SAVE BUDGET

  HEAD DEP BOUNDS   PERIOD   10   STEP    10
 BOUNDARY      1   LAYER   2   ROW    13   COL     1   RATE   -0.301960    
 BOUNDARY      2   LAYER   2   ROW    14   COL     9   RATE    0.214787    



 STREAM LISTING     PERIOD     10   STEP       10

 LAYER ROW COL. STREAM  RCH.  FLOW INTO     FLOW TO   FLOW OUT OF   OVRLND.     DIRECT     STREAM       STREAM     STREAM     STREAM   STREAMBED  STREAMBED
                SEG.NO.  NO.  STRM. RCH.    AQUIFER    STRM. RCH.    RUNOFF     PRECIP       ET          HEAD       DEPTH      WIDTH   CONDCTNC.   GRADIENT

   2    1    1     1     1    6.1000E+01  9.4378E-01   6.0056E+01  0.000E+00  0.000E+00  0.000E+00  1.09458E+03  1.534E+00  1.835E+01  8.259E-01  3.809E-01
   2    2    2     1     2    6.0056E+01  3.6086E+00   5.6448E+01  0.000E+00  0.000E+00  0.000E+00  1.08956E+03  1.506E+00  1.807E+01  1.265E+00  9.508E-01
   2    3    3     1     3    5.6448E+01  4.6889E+00   5.1759E+01  0.000E+00  0.000E+00  0.000E+00  1.08387E+03  1.454E+00  1.755E+01  1.053E+00  1.485E+00
   2    3    4     1     4    5.1759E+01  4.1398E+00   4.7619E+01  0.000E+00  0.000E+00  0.000E+00  1.07881E+03  1.398E+00  1.696E+01  9.413E-01  1.466E+00
   2    4    5     2     1    3.7619E+01  0.0000E+00   3.7619E+01  0.000E+00  0.000E+00  0.000E+00  1.07348E+03  1.543E+00  1.200E+01  0.000E+00  1.514E+00
   2    5    6     2     2    3.7619E+01  2.7057E+00   3.4913E+01  0.000E+00  0.000E+00  0.000E+00  1.06802E+03  1.510E+00  1.200E+01  6.000E-01  1.503E+00
   2    6    6     2     3    3.4913E+01  2.6649E+00   3.2248E+01  0.000E+00  0.000E+00  0.000E+00  1.06323E+03  1.441E+00  1.200E+01  6.000E-01  1.480E+00
   2    7    6     2     4    3.2248E+01  2.6234E+00   2.9625E+01  0.000E+00  0.000E+00  0.000E+00  1.05845E+03  1.372E+00  1.200E+01  6.000E-01  1.457E+00
   2    8    6     2     5    2.9625E+01  2.5811E+00   2.7044E+01  0.000E+00  0.000E+00  0.000E+00  1.05366E+03  1.302E+00  1.200E+01  6.000E-01  1.434E+00
   2    3    5     3     1    1.0000E+01  2.8252E+00   7.1748E+00  0.000E+00  0.000E+00  0.000E+00  1.07555E+03  1.909E+00  9.636E+00  7.227E-01  1.955E+00
   2    3    6     3     2    7.1748E+00  2.4905E+00   4.6843E+00  0.000E+00  0.000E+00  0.000E+00  1.07264E+03  1.727E+00  8.909E+00  6.682E-01  1.864E+00
   2    3    7     3     3    4.6843E+00  1.9718E+00   2.7125E+00  0.000E+00  0.000E+00  0.000E+00  1.06987E+03  1.555E+00  8.218E+00  5.547E-01  1.777E+00
   2    4    8     3     4    2.7125E+00  2.2567E+00   4.5579E-01  0.000E+00  0.000E+00  0.000E+00  1.06682E+03  1.364E+00  7.455E+00  6.709E-01  1.682E+00
   2    5    8     3     5    4.5579E-01  4.5579E-01   0.0000E+00  0.000E+00  0.000E+00  0.000E+00  1.06362E+03  0.000E+00  6.655E+00  4.991E-01  1.582E+00
   2    6    8     3     6    0.0000E+00  0.0000E+00   0.0000E+00  0.000E+00  0.000E+00  0.000E+00  1.06055E+03  0.000E+00  6.145E+00  1.844E-01  1.000E+00
   2    5   10     4     1    1.0000E+01  9.0525E-01   9.0947E+00  0.000E+00  0.000E+00  0.000E+00  1.07835E+03  6.210E-01  1.000E+01  2.500E-01  1.207E+00
   2    5    9     4     2    9.0947E+00  1.7835E+00   7.3113E+00  0.000E+00  0.000E+00  0.000E+00  1.07148E+03  5.670E-01  1.000E+01  5.000E-01  1.189E+00
   2    6    8     4     3    7.3113E+00  1.2257E+00   6.0855E+00  0.000E+00  0.000E+00  0.000E+00  1.06368E+03  5.021E-01  1.000E+01  3.500E-01  1.167E+00
   2    6    8     5     1    6.0855E+00  1.4716E+00   4.6139E+00  0.000E+00  0.000E+00  0.000E+00  1.05854E+03  5.396E-01  1.039E+01  4.158E-01  1.180E+00
   2    7    7     5     2    4.6139E+00  1.4897E+00   3.1242E+00  0.000E+00  0.000E+00  0.000E+00  1.05398E+03  4.817E-01  8.557E+00  4.279E-01  1.161E+00
   2    8    7     5     3    3.1242E+00  8.2855E-01   2.2957E+00  0.000E+00  0.000E+00  0.000E+00  1.04968E+03  4.253E-01  6.911E+00  2.419E-01  1.142E+00
   2    8    6     5     4    2.2957E+00  4.9455E-01   1.8011E+00  0.000E+00  0.000E+00  0.000E+00  1.04664E+03  3.856E-01  5.843E+00  1.461E-01  1.129E+00
   2    9    6     6     1    2.8845E+01  2.5767E+00   2.6268E+01  0.000E+00  0.000E+00  0.000E+00  1.04402E+03  1.295E+00  1.200E+01  6.000E-01  1.432E+00
   2   10    7     6     2    2.6268E+01  2.5327E+00   2.3736E+01  0.000E+00  0.000E+00  0.000E+00  1.03940E+03  1.221E+00  1.200E+01  6.000E-01  1.407E+00
   2   11    7     6     3    2.3736E+01  1.5728E+00   2.2163E+01  0.000E+00  0.000E+00  0.000E+00  1.03480E+03  1.160E+00  1.200E+01  6.000E-01  8.738E-01
   2   12    7     6     4    2.2163E+01  3.7990E-01   2.1783E+01  0.000E+00  0.000E+00  0.000E+00  1.03022E+03  1.130E+00  1.200E+01  6.000E-01  2.111E-01
   2   13    7     6     5    2.1783E+01 -5.7099E-01   2.2354E+01  0.000E+00  0.000E+00  0.000E+00  1.02704E+03  1.133E+00  1.200E+01  2.400E-01 -7.930E-01
   2   14    9     7     1    1.5000E+02  2.8880E+00   1.4711E+02  0.000E+00  0.000E+00  0.000E+00  1.03986E+03  2.284E+00  5.528E+01  5.591E+00  1.722E-01
   2   13    8     7     2    1.4711E+02  3.5906E+00   1.4352E+02  0.000E+00  0.000E+00  0.000E+00  1.03477E+03  2.266E+00  5.520E+01  6.141E+00  1.949E-01
   2   13    7     7     3    1.4352E+02  1.3995E+00   1.4212E+02  0.000E+00  0.000E+00  0.000E+00  1.02967E+03  2.253E+00  5.514E+01  5.576E+00  8.366E-02
   2   13    6     8     1    1.6448E+02 -2.9320E-01   1.6484E+02  6.878E-02  0.000E+00  0.000E+00  1.02479E+03  2.917E+00  4.230E+01  4.310E+00 -2.267E-02
   2   13    5     8     2    1.6484E+02 -3.2943E+00   1.6820E+02  6.878E-02  0.000E+00  0.000E+00  1.01855E+03  2.929E+00  4.248E+01  4.328E+00 -2.537E-01
   2   13    4     8     3    1.6820E+02 -5.7835E+00   1.7405E+02  6.878E-02  0.000E+00  0.000E+00  1.01233E+03  2.960E+00  4.291E+01  4.373E+00 -4.408E-01
   2   13    3     8     4    1.7405E+02 -6.3478E+00   1.8047E+02  6.878E-02  0.000E+00  0.000E+00  1.00612E+03  2.999E+00  4.348E+01  4.431E+00 -4.775E-01
   2   13    2     8     5    1.8047E+02 -4.1120E+00   1.8465E+02  6.878E-02  0.000E+00  0.000E+00  9.99907E+02  3.032E+00  4.397E+01  4.480E+00 -3.059E-01
   2   13    1     8     6    1.8465E+02 -2.7548E+00   1.8745E+02  4.127E-02  0.000E+00  0.000E+00  9.94929E+02  3.054E+00  4.428E+01  2.707E+00 -3.392E-01
   2    4    5     9     1    0.0000E+00  0.0000E+00   0.0000E+00  0.000E+00  0.000E+00  0.000E+00  1.06000E+03  0.000E+00  2.000E+01  2.000E-03  4.642E-01
   2    4    5    10     1    0.0000E+00  0.0000E+00   0.0000E+00  0.000E+00  0.000E+00  0.000E+00  1.08000E+03  0.000E+00  2.000E+01  2.000E-03  1.000E+00





     0  LAKE CELLS ARE DRY.

 PERIOD    10     TIME STEP    10     TIME STEP LENGTH  1.7520E+05
 PERIOD TIME  1.7520E+06     TOTAL SIMULATION TIME  2.5404E+07


                 HYDROLOGIC BUDGET SUMMARIES FOR SIMULATED LAKES
     (ALL FLUID FLUXES ARE VOLUMES ADDED TO THE LAKE DURING PRESENT TIME STEP)
     ----------------------------------------------------------------------------------------
 LAKE    STAGE         VOLUME     VOL. CHANGE      PRECIP     EVAPORATION    SPECIFIED RUNOFF     COMPUTED RUNOFF    TOTAL RUNOFF
   1  1.074500E+03  3.100833E+00 -3.435464E-01  0.000000E+00  3.423601E-01   0.000000E+00          0.000000E+00      0.000000E+00

            GROUND WATER            SURFACE WATER        WATER          UZF INFIL.
 LAKE    INFLOW     OUTFLOW      INFLOW     OUTFLOW       USE        FROM LAKE
   1  0.0000E+00  0.0000E+00  0.0000E+00  0.0000E+00  0.0000E+00       1.1863E-03

      CONNECTED LAKE   TIME-STEP         STAGE-CHANGE          PERCENT
 LAKE    INFLUX      SURFACE AREA   TIME STEP  CUMULATIVE    DISCREPANCY
   1   0.0000E+00     4.8853E+01   1.8527E-05  1.8527E-05       0.000
 --------------------------------------------------------------------------------



            CUMULATIVE HYDROLOGIC BUDGET SUMMARIES FOR SIMULATED LAKES
     (ALL FLUID FLUXES ARE SUMS OF VOLUMES ADDED TO THE LAKE SINCE INITIAL TIME)
     ---------------------------------------------------------------------------
 LAKE       PRECIP       EVAP     SPECIFIED RUNOFF   COMPUTED RUNOFF   TOTAL RUNOFF
   1     0.0000E+00  1.6033E+06       0.0000E+00       0.0000E+00       0.0000E+00

            GROUND WATER            SURFACE WATER       UZF INFIL.
 LAKE    INFLOW     OUTFLOW      INFLOW     OUTFLOW     FROM LAKE
   1  0.0000E+00  0.0000E+00  1.9325E+08  4.8785E+07    1.4286E+08

         WATER    CONNECTED LAKE   CHANGE       PERCENT
 LAKE     USE         INFLUX       IN VOL.    DISCREPANCY
   1   0.0000E+00   0.0000E+00   3.1008E+00     -0.000
 --------------------------------------------------------------------------------

 UBDSV3 SAVING "           GW ET" ON UNIT  61 AT TIME STEP 10, STRESS PERIOD 10
 UBDSV3 SAVING "    UZF RECHARGE" ON UNIT  61 AT TIME STEP 10, STRESS PERIOD 10
 UBDSV3 SAVING " SURFACE LEAKAGE" ON UNIT  61 AT TIME STEP 10, STRESS PERIOD 10


UNSATURATED ZONE PACKAGE VOLUMETRIC BUDGET FOR  TIME STEP    10 STRESS PERIOD   10
  ------------------------------------------------------------------------------



     CUMULATIVE VOLUMES      L**3       RATES FOR THIS TIME STEP      L**3/T
     ------------------                 ------------------------

           IN:                                      IN:
           ---                                      ---
        INFILTRATION =  1592804849.4993          INFILTRATION =          16.8787

          OUT:                                     OUT:
          ----                                     ----
              UZF ET =  1487585585.9078                UZF ET =          24.8512
        UZF RECHARGE =   710077107.8747          UZF RECHARGE =           6.4269

            IN - OUT =  -604857844.2832              IN - OUT =         -14.3994

          STORAGE:                                 STORAGE:
          --------                                 --------
      STORAGE CHANGE =  -604082597.1763        STORAGE CHANGE =         -14.3988

 PERCENT DISCREPANCY IS DIFFERENCE BETWEEN IN-OUT MINUS CHANGE IN STORAGE
 DIVIDED BY THE AVERAGE OF IN AND OUT TIMES 100

 PERCENT DISCREPANCY =          -0.01     PERCENT DISCREPANCY =          -0.00






1
  VOLUMETRIC BUDGET FOR ENTIRE MODEL AT END OF TIME STEP   10, STRESS PERIOD  10
  ------------------------------------------------------------------------------

     CUMULATIVE VOLUMES      L**3       RATES FOR THIS TIME STEP      L**3/T
     ------------------                 ------------------------

           IN:                                      IN:
           ---                                      ---
             STORAGE     =   207135504.0000               STORAGE     =          13.6082
       CONSTANT HEAD     =           0.0000         CONSTANT HEAD     =           0.0000
               WELLS     =           0.0000                 WELLS     =           0.0000
     HEAD DEP BOUNDS     =     5449401.0000       HEAD DEP BOUNDS     =           0.2148
      STREAM LEAKAGE     =  1937867520.0000        STREAM LEAKAGE     =          57.0952
       LAKE  SEEPAGE     =           0.0000         LAKE  SEEPAGE     =           0.0000
        UZF RECHARGE     =   710076800.0000          UZF RECHARGE     =           6.4269
               GW ET     =           0.0000                 GW ET     =           0.0000
     SURFACE LEAKAGE     =           0.0000       SURFACE LEAKAGE     =           0.0000

                TOTAL IN =  2860529152.0000                  TOTAL IN =          77.3451

          OUT:                                     OUT:
          ----                                     ----
             STORAGE     =  1617414016.0000               STORAGE     =          35.0251
       CONSTANT HEAD     =           0.0000         CONSTANT HEAD     =           0.0000
               WELLS     =   315360000.0000                 WELLS     =           0.0000
     HEAD DEP BOUNDS     =     7752818.0000       HEAD DEP BOUNDS     =           0.3020
      STREAM LEAKAGE     =   455885792.0000        STREAM LEAKAGE     =          23.1566
       LAKE  SEEPAGE     =           0.0000         LAKE  SEEPAGE     =           0.0000
        UZF RECHARGE     =           0.0000          UZF RECHARGE     =           0.0000
               GW ET     =   373387456.0000                 GW ET     =          18.4964
     SURFACE LEAKAGE     =    90708928.0000       SURFACE LEAKAGE     =           0.3636

               TOTAL OUT =  2860509184.0000                 TOTAL OUT =          77.3438

                IN - OUT =       19968.0000                  IN - OUT =       1.3123E-03

     PERCENT DISCREPANCY =           0.00         PERCENT DISCREPANCY =           0.00






         TIME SUMMARY AT END OF TIME STEP   10 IN STRESS PERIOD   10
                    SECONDS     MINUTES      HOURS       DAYS        YEARS
                    -----------------------------------------------------------
   TIME STEP LENGTH 1.75200E+05  2920.0      48.667      2.0278     5.55175E-03
 STRESS PERIOD TIME 1.75200E+06  29200.      486.67      20.278     5.55175E-02
         TOTAL TIME 2.54040E+07 4.23400E+05  7056.7      294.03     0.80500    
1
 
 SOLVING FOR HEAD 
                                                   Max.-Head-Change                         Max.-Flux-Residual
  Residual-Control   Outer-Iter.   Inner-Iter.     Column Row Layer    Maximum-Head-Change  Column Row Layer    Maximum-Flux-Residual          L2-NORM 
          0                 1           2             4    3     2      -0.8554785013E-01       4    3    2        -0.2342156737E+01      0.6726677422E+01
          0                 2           2             4    3     2       0.8121763197E-02       4    3    2         0.2308255993E+00      0.5280083060E+00
          0                 3           1             4    3     2      -0.4578826427E-03       4    3    2        -0.1351124505E-01      0.2641813396E-01

    ------------------------------------------------
       NWT REQUIRED            3 OUTER ITERATIONS 
       AND A TOTAL OF          5 INNER ITERATIONS.
    ------------------------------------------------

 NO OUTPUT CONTROL FOR STRESS PERIOD   10   TIME STEP   11
 
 SOLVING FOR HEAD 
                                                   Max.-Head-Change                         Max.-Flux-Residual
  Residual-Control   Outer-Iter.   Inner-Iter.     Column Row Layer    Maximum-Head-Change  Column Row Layer    Maximum-Flux-Residual          L2-NORM 
          0                 1           2             4    3     2      -0.8141674480E-01       4    3    2        -0.2226821064E+01      0.6469407092E+01
          0                 2           2             4    3     2       0.7731183887E-02       4    3    2         0.2195506952E+00      0.5049458704E+00
          0                 3           1             4    3     2      -0.4366200667E-03       4    3    2        -0.1287701164E-01      0.2511655722E-01

    ------------------------------------------------
       NWT REQUIRED            3 OUTER ITERATIONS 
       AND A TOTAL OF          5 INNER ITERATIONS.
    ------------------------------------------------

 NO OUTPUT CONTROL FOR STRESS PERIOD   10   TIME STEP   12
 
 SOLVING FOR HEAD 
                                                   Max.-Head-Change                         Max.-Flux-Residual
  Residual-Control   Outer-Iter.   Inner-Iter.     Column Row Layer    Maximum-Head-Change  Column Row Layer    Maximum-Flux-Residual          L2-NORM 
          0                 1           2             3    3     2      -0.9439081687E-01       3    3    2        -0.2574139623E+01      0.6748552901E+01
          0                 2           2             3    3     2       0.8957982733E-02       3    3    2         0.2532203098E+00      0.5451870264E+00
          0                 3           1             3    3     2      -0.5049480653E-03       3    3    2        -0.1479329059E-01      0.2799751393E-01

    ------------------------------------------------
       NWT REQUIRED            3 OUTER ITERATIONS 
       AND A TOTAL OF          5 INNER ITERATIONS.
    ------------------------------------------------

 NO OUTPUT CONTROL FOR STRESS PERIOD   10   TIME STEP   13
 
 SOLVING FOR HEAD 
                                                   Max.-Head-Change                         Max.-Flux-Residual
  Residual-Control   Outer-Iter.   Inner-Iter.     Column Row Layer    Maximum-Head-Change  Column Row Layer    Maximum-Flux-Residual          L2-NORM 
          0                 1           2             3    3     2      -0.9614724414E-01       3    3    2        -0.2619404403E+01      0.6673482528E+01
          0                 2           2             3    3     2       0.9121777124E-02       3    3    2         0.2577000777E+00      0.5433731613E+00
          0                 3           1             3    3     2      -0.5140595521E-03       3    3    2        -0.1505797203E-01      0.2806366889E-01

    ------------------------------------------------
       NWT REQUIRED            3 OUTER ITERATIONS 
       AND A TOTAL OF          5 INNER ITERATIONS.
    ------------------------------------------------

 NO OUTPUT CONTROL FOR STRESS PERIOD   10   TIME STEP   14
 
 SOLVING FOR HEAD 
                                                   Max.-Head-Change                         Max.-Flux-Residual
  Residual-Control   Outer-Iter.   Inner-Iter.     Column Row Layer    Maximum-Head-Change  Column Row Layer    Maximum-Flux-Residual          L2-NORM 
          0                 1           2             3    3     2      -0.9195969035E-01       3    3    2        -0.2503052515E+01      0.6414355719E+01
          0                 2           2             3    3     2       0.8725051062E-02       3    3    2         0.2463543005E+00      0.5192209485E+00
          0                 3           1             3    3     2      -0.4918640085E-03       3    3    2        -0.1440489199E-01      0.2669410181E-01

    ------------------------------------------------
       NWT REQUIRED            3 OUTER ITERATIONS 
       AND A TOTAL OF          5 INNER ITERATIONS.
    ------------------------------------------------

 OUTPUT CONTROL FOR STRESS PERIOD   10   TIME STEP   15
    PRINT BUDGET
    PRINT HEAD FOR ALL LAYERS
    SAVE HEAD FOR ALL LAYERS
    SAVE BUDGET

  HEAD DEP BOUNDS   PERIOD   10   STEP    15
 BOUNDARY      1   LAYER   2   ROW    13   COL     1   RATE   -0.298163    
 BOUNDARY      2   LAYER   2   ROW    14   COL     9   RATE    0.214830    



 STREAM LISTING     PERIOD     10   STEP       15

 LAYER ROW COL. STREAM  RCH.  FLOW INTO     FLOW TO   FLOW OUT OF   OVRLND.     DIRECT     STREAM       STREAM     STREAM     STREAM   STREAMBED  STREAMBED
                SEG.NO.  NO.  STRM. RCH.    AQUIFER    STRM. RCH.    RUNOFF     PRECIP       ET          HEAD       DEPTH      WIDTH   CONDCTNC.   GRADIENT

   2    1    1     1     1    4.6000E+01  8.5157E-01   4.5148E+01  0.000E+00  0.000E+00  0.000E+00  1.09442E+03  1.372E+00  1.641E+01  7.385E-01  3.844E-01
   2    2    2     1     2    4.5148E+01  3.3368E+00   4.1812E+01  0.000E+00  0.000E+00  0.000E+00  1.08942E+03  1.357E+00  1.612E+01  1.128E+00  9.856E-01
   2    3    3     1     3    4.1812E+01  4.0500E+00   3.7762E+01  0.000E+00  0.000E+00  0.000E+00  1.08375E+03  1.331E+00  1.559E+01  9.352E-01  1.444E+00
   2    3    4     1     4    3.7762E+01  3.5809E+00   3.4181E+01  0.000E+00  0.000E+00  0.000E+00  1.07871E+03  1.301E+00  1.500E+01  8.325E-01  1.434E+00
   2    4    5     2     1    2.4181E+01  0.0000E+00   2.4181E+01  0.000E+00  0.000E+00  0.000E+00  1.07312E+03  1.184E+00  1.200E+01  0.000E+00  1.395E+00
   2    5    6     2     2    2.4181E+01  2.4881E+00   2.1693E+01  0.000E+00  0.000E+00  0.000E+00  1.06766E+03  1.147E+00  1.200E+01  6.000E-01  1.382E+00
   2    6    6     2     3    2.1693E+01  2.4427E+00   1.9250E+01  0.000E+00  0.000E+00  0.000E+00  1.06286E+03  1.071E+00  1.200E+01  6.000E-01  1.357E+00
   2    7    6     2     4    1.9250E+01  2.3960E+00   1.6854E+01  0.000E+00  0.000E+00  0.000E+00  1.05807E+03  9.933E-01  1.200E+01  6.000E-01  1.331E+00
   2    8    6     2     5    1.6854E+01  2.3477E+00   1.4506E+01  0.000E+00  0.000E+00  0.000E+00  1.05327E+03  9.128E-01  1.200E+01  6.000E-01  1.304E+00
   2    3    5     3     1    1.0000E+01  2.8252E+00   7.1748E+00  0.000E+00  0.000E+00  0.000E+00  1.07555E+03  1.909E+00  9.636E+00  7.227E-01  1.955E+00
   2    3    6     3     2    7.1748E+00  2.4905E+00   4.6843E+00  0.000E+00  0.000E+00  0.000E+00  1.07264E+03  1.727E+00  8.909E+00  6.682E-01  1.864E+00
   2    3    7     3     3    4.6843E+00  1.9718E+00   2.7125E+00  0.000E+00  0.000E+00  0.000E+00  1.06987E+03  1.555E+00  8.218E+00  5.547E-01  1.777E+00
   2    4    8     3     4    2.7125E+00  2.2567E+00   4.5579E-01  0.000E+00  0.000E+00  0.000E+00  1.06682E+03  1.364E+00  7.455E+00  6.709E-01  1.682E+00
   2    5    8     3     5    4.5579E-01  4.5579E-01   0.0000E+00  0.000E+00  0.000E+00  0.000E+00  1.06362E+03  0.000E+00  6.655E+00  4.991E-01  1.582E+00
   2    6    8     3     6    0.0000E+00  0.0000E+00   0.0000E+00  0.000E+00  0.000E+00  0.000E+00  1.06055E+03  0.000E+00  6.145E+00  1.844E-01  1.000E+00
   2    5   10     4     1    1.0000E+01  9.0525E-01   9.0947E+00  0.000E+00  0.000E+00  0.000E+00  1.07835E+03  6.210E-01  1.000E+01  2.500E-01  1.207E+00
   2    5    9     4     2    9.0947E+00  1.7835E+00   7.3113E+00  0.000E+00  0.000E+00  0.000E+00  1.07148E+03  5.670E-01  1.000E+01  5.000E-01  1.189E+00
   2    6    8     4     3    7.3113E+00  1.2257E+00   6.0855E+00  0.000E+00  0.000E+00  0.000E+00  1.06368E+03  5.021E-01  1.000E+01  3.500E-01  1.167E+00
   2    6    8     5     1    6.0855E+00  1.4716E+00   4.6139E+00  0.000E+00  0.000E+00  0.000E+00  1.05854E+03  5.396E-01  1.039E+01  4.158E-01  1.180E+00
   2    7    7     5     2    4.6139E+00  1.4897E+00   3.1242E+00  0.000E+00  0.000E+00  0.000E+00  1.05398E+03  4.817E-01  8.557E+00  4.279E-01  1.161E+00
   2    8    7     5     3    3.1242E+00  8.2855E-01   2.2957E+00  0.000E+00  0.000E+00  0.000E+00  1.04968E+03  4.253E-01  6.911E+00  2.419E-01  1.142E+00
   2    8    6     5     4    2.2957E+00  4.9455E-01   1.8011E+00  0.000E+00  0.000E+00  0.000E+00  1.04664E+03  3.856E-01  5.843E+00  1.461E-01  1.129E+00
   2    9    6     6     1    1.6308E+01  2.3422E+00   1.3965E+01  0.000E+00  0.000E+00  0.000E+00  1.04363E+03  9.036E-01  1.200E+01  6.000E-01  1.301E+00
   2   10    7     6     2    1.3965E+01  2.2908E+00   1.1675E+01  0.000E+00  0.000E+00  0.000E+00  1.03900E+03  8.179E-01  1.200E+01  6.000E-01  1.273E+00
   2   11    7     6     3    1.1675E+01  1.3811E+00   1.0293E+01  0.000E+00  0.000E+00  0.000E+00  1.03438E+03  7.455E-01  1.200E+01  6.000E-01  7.673E-01
   2   12    7     6     4    1.0293E+01  2.0270E-01   1.0091E+01  0.000E+00  0.000E+00  0.000E+00  1.02980E+03  7.128E-01  1.200E+01  6.000E-01  1.126E-01
   2   13    7     6     5    1.0091E+01 -6.5927E-01   1.0750E+01  0.000E+00  0.000E+00  0.000E+00  1.02663E+03  7.223E-01  1.200E+01  2.400E-01 -9.156E-01
   2   14    9     7     1    1.5000E+02  2.8943E+00   1.4711E+02  0.000E+00  0.000E+00  0.000E+00  1.03986E+03  2.284E+00  5.528E+01  5.591E+00  1.726E-01
   2   13    8     7     2    1.4711E+02  3.6195E+00   1.4349E+02  0.000E+00  0.000E+00  0.000E+00  1.03477E+03  2.266E+00  5.520E+01  6.141E+00  1.965E-01
   2   13    7     7     3    1.4349E+02  1.6340E+00   1.4185E+02  0.000E+00  0.000E+00  0.000E+00  1.02967E+03  2.252E+00  5.513E+01  5.575E+00  9.769E-02
   2   13    6     8     1    1.5260E+02 -2.0588E-01   1.5284E+02  3.633E-02  0.000E+00  0.000E+00  1.02471E+03  2.836E+00  4.112E+01  4.190E+00 -1.638E-02
   2   13    5     8     2    1.5284E+02 -3.2272E+00   1.5611E+02  3.633E-02  0.000E+00  0.000E+00  1.01847E+03  2.848E+00  4.130E+01  4.208E+00 -2.556E-01
   2   13    4     8     3    1.5611E+02 -5.8169E+00   1.6196E+02  3.633E-02  0.000E+00  0.000E+00  1.01225E+03  2.879E+00  4.175E+01  4.254E+00 -4.558E-01
   2   13    3     8     4    1.6196E+02 -6.3249E+00   1.6832E+02  3.633E-02  0.000E+00  0.000E+00  1.00605E+03  2.920E+00  4.234E+01  4.315E+00 -4.886E-01
   2   13    2     8     5    1.6832E+02 -3.9507E+00   1.7231E+02  3.633E-02  0.000E+00  0.000E+00  9.99829E+02  2.954E+00  4.284E+01  4.365E+00 -3.017E-01
   2   13    1     8     6    1.7231E+02 -2.6267E+00   1.7496E+02  2.180E-02  0.000E+00  0.000E+00  9.94851E+02  2.976E+00  4.315E+01  2.638E+00 -3.319E-01
   2    4    5     9     1    0.0000E+00  0.0000E+00   0.0000E+00  0.000E+00  0.000E+00  0.000E+00  1.06000E+03  0.000E+00  2.000E+01  2.000E-03  4.562E-01
   2    4    5    10     1    0.0000E+00  0.0000E+00   0.0000E+00  0.000E+00  0.000E+00  0.000E+00  1.08000E+03  0.000E+00  2.000E+01  2.000E-03  1.000E+00





     0  LAKE CELLS ARE DRY.

 PERIOD    10     TIME STEP    15     TIME STEP LENGTH  1.7520E+05
 PERIOD TIME  2.6280E+06     TOTAL SIMULATION TIME  2.6280E+07


                 HYDROLOGIC BUDGET SUMMARIES FOR SIMULATED LAKES
     (ALL FLUID FLUXES ARE VOLUMES ADDED TO THE LAKE DURING PRESENT TIME STEP)
     ----------------------------------------------------------------------------------------
 LAKE    STAGE         VOLUME     VOL. CHANGE      PRECIP     EVAPORATION    SPECIFIED RUNOFF     COMPUTED RUNOFF    TOTAL RUNOFF
   1  1.074500E+03  1.834474E+00 -2.029577E-01  0.000000E+00  2.025425E-01   0.000000E+00          0.000000E+00      0.000000E+00

            GROUND WATER            SURFACE WATER        WATER          UZF INFIL.
 LAKE    INFLOW     OUTFLOW      INFLOW     OUTFLOW       USE        FROM LAKE
   1  0.0000E+00  0.0000E+00  0.0000E+00  0.0000E+00  0.0000E+00       4.1518E-04

      CONNECTED LAKE   TIME-STEP         STAGE-CHANGE          PERCENT
 LAKE    INFLUX      SURFACE AREA   TIME STEP  CUMULATIVE    DISCREPANCY
   1   0.0000E+00     2.8902E+01   1.0961E-05  1.0961E-05       0.000
 --------------------------------------------------------------------------------



            CUMULATIVE HYDROLOGIC BUDGET SUMMARIES FOR SIMULATED LAKES
     (ALL FLUID FLUXES ARE SUMS OF VOLUMES ADDED TO THE LAKE SINCE INITIAL TIME)
     ---------------------------------------------------------------------------
 LAKE       PRECIP       EVAP     SPECIFIED RUNOFF   COMPUTED RUNOFF   TOTAL RUNOFF
   1     0.0000E+00  1.6033E+06       0.0000E+00       0.0000E+00       0.0000E+00

            GROUND WATER            SURFACE WATER       UZF INFIL.
 LAKE    INFLOW     OUTFLOW      INFLOW     OUTFLOW     FROM LAKE
   1  0.0000E+00  0.0000E+00  1.9325E+08  4.8785E+07    1.4286E+08

         WATER    CONNECTED LAKE   CHANGE       PERCENT
 LAKE     USE         INFLUX       IN VOL.    DISCREPANCY
   1   0.0000E+00   0.0000E+00   1.8345E+00     -0.000
 --------------------------------------------------------------------------------

 UBDSV3 SAVING "           GW ET" ON UNIT  61 AT TIME STEP 15, STRESS PERIOD 10
 UBDSV3 SAVING "    UZF RECHARGE" ON UNIT  61 AT TIME STEP 15, STRESS PERIOD 10
 UBDSV3 SAVING " SURFACE LEAKAGE" ON UNIT  61 AT TIME STEP 15, STRESS PERIOD 10


UNSATURATED ZONE PACKAGE VOLUMETRIC BUDGET FOR  TIME STEP    15 STRESS PERIOD   10
  ------------------------------------------------------------------------------



     CUMULATIVE VOLUMES      L**3       RATES FOR THIS TIME STEP      L**3/T
     ------------------                 ------------------------

           IN:                                      IN:
           ---                                      ---
        INFILTRATION =  1607594856.1129          INFILTRATION =          16.8867

          OUT:                                     OUT:
          ----                                     ----
              UZF ET =  1508022002.7821                UZF ET =          21.0672
        UZF RECHARGE =   715327534.2448          UZF RECHARGE =           5.7058

            IN - OUT =  -615754680.9140              IN - OUT =          -9.8862

          STORAGE:                                 STORAGE:
          --------                                 --------
      STORAGE CHANGE =  -614976741.6881        STORAGE CHANGE =          -9.8836

 PERCENT DISCREPANCY IS DIFFERENCE BETWEEN IN-OUT MINUS CHANGE IN STORAGE
 DIVIDED BY THE AVERAGE OF IN AND OUT TIMES 100

 PERCENT DISCREPANCY =          -0.01     PERCENT DISCREPANCY =          -0.01






1
              HEAD IN LAYER 1 AT END OF TIME STEP 15 IN STRESS PERIOD 10
  ---------------------------------------------------------------------------

           1       2       3       4       5       6       7       8       9      10
 ...................................................................................
   1  6999.00 6999.00 6999.00 6999.00 6999.00 6999.00 6999.00 6999.00 6999.00 6999.00
   2  6999.00 6999.00 6999.00 6999.00 6999.00 6999.00 6999.00 6999.00 6999.00 6999.00
   3  6999.00 6999.00 6999.00 6999.00 6999.00 6999.00 6999.00 6999.00 6999.00 6999.00
   4  6999.00 6999.00 6999.00 6999.00 1074.50 6999.00 6999.00 6999.00 6999.00 6999.00
   5  6999.00 6999.00 6999.00 6999.00 6999.00 6999.00 6999.00 6999.00 6999.00 6999.00
   6  6999.00 6999.00 6999.00 6999.00 6999.00 6999.00 6999.00 6999.00 6999.00 6999.00
   7  6999.00 6999.00 6999.00 6999.00 6999.00 6999.00 6999.00 6999.00 6999.00 6999.00
   8  6999.00 6999.00 6999.00 6999.00 6999.00 6999.00 6999.00 6999.00 6999.00 6999.00
   9  6999.00 6999.00 6999.00 6999.00 6999.00 6999.00 6999.00 6999.00 6999.00 6999.00
  10  6999.00 6999.00 6999.00 6999.00 6999.00 6999.00 6999.00 6999.00 6999.00 6999.00
  11  6999.00 6999.00 6999.00 6999.00 6999.00 6999.00 6999.00 6999.00 6999.00 6999.00
  12  6999.00 6999.00 6999.00 6999.00 6999.00 6999.00 6999.00 6999.00 6999.00 6999.00
  13  6999.00 6999.00 6999.00 6999.00 6999.00 6999.00 6999.00 6999.00 6999.00 6999.00
  14  6999.00 6999.00 6999.00 6999.00 6999.00 6999.00 6999.00 6999.00 6999.00 6999.00
  15  6999.00 6999.00 6999.00 6999.00 6999.00 6999.00 6999.00 6999.00 6999.00 6999.00
1
              HEAD IN LAYER 2 AT END OF TIME STEP 15 IN STRESS PERIOD 10
  ---------------------------------------------------------------------------

           1       2       3       4       5       6       7       8       9      10
 ...................................................................................
   1  1093.27 1089.28 6999.00 6999.00 6999.00 6999.00 6999.00 6999.00 6999.00 6999.00
   2  1088.66 1086.46 1080.67 6999.00 6999.00 1067.67 1066.99 1065.47 6999.00 6999.00
   3  6999.00 1076.05 1074.72 1070.09 1067.70 1066.36 1065.63 1063.83 6999.00 6999.00
   4  1062.08 1064.44 1064.98 1061.42 1058.63 1057.57 1057.78 1060.28 1058.13 6999.00
   5  1057.96 1056.13 1055.64 1054.60 1053.99 1054.12 1053.05 1053.57 1056.05 1057.92
   6  1053.82 1050.44 1049.18 1049.18 1049.42 1050.62 1050.49 1051.50 1052.84 1056.98
   7  1050.85 1045.35 1043.85 1044.26 1045.03 1046.75 1047.35 1048.45 1049.34 6999.00
   8  6999.00 1039.63 1038.89 1039.63 1040.56 1042.51 1043.18 1044.57 1045.39 6999.00
   9  6999.00 1033.66 1033.63 1034.71 1035.80 1037.79 1038.58 1038.85 1040.98 6999.00
  10  6999.00 1027.57 1028.20 1029.86 1031.28 1033.28 1035.10 1035.30 1037.53 1040.69
  11  6999.00 1019.99 1021.41 1024.84 1027.10 1029.65 1032.08 1032.95 1035.23 6999.00
  12  1003.24 1009.94 1014.29 1019.03 1022.84 1026.54 1029.47 1031.60 1034.85 6999.00
  13   995.85 1000.73 1007.51 1013.62 1019.24 1024.76 1029.38 1034.18 1036.74 6999.00
  14  6999.00 1007.12 1010.88 1015.83 1020.96 1025.84 1030.23 1035.21 1039.35 6999.00
  15  6999.00 6999.00 1018.81 1021.60 1025.18 1028.10 6999.00 6999.00 6999.00 6999.00

 HEAD WILL BE SAVED ON UNIT   58 AT END OF TIME STEP   15, STRESS PERIOD   10
1
  VOLUMETRIC BUDGET FOR ENTIRE MODEL AT END OF TIME STEP   15, STRESS PERIOD  10
  ------------------------------------------------------------------------------

     CUMULATIVE VOLUMES      L**3       RATES FOR THIS TIME STEP      L**3/T
     ------------------                 ------------------------

           IN:                                      IN:
           ---                                      ---
             STORAGE     =   218325920.0000               STORAGE     =          12.6811
       CONSTANT HEAD     =           0.0000         CONSTANT HEAD     =           0.0000
               WELLS     =           0.0000                 WELLS     =           0.0000
     HEAD DEP BOUNDS     =     5637579.0000       HEAD DEP BOUNDS     =           0.2148
      STREAM LEAKAGE     =  1986465152.0000        STREAM LEAKAGE     =          54.0570
       LAKE  SEEPAGE     =           0.0000         LAKE  SEEPAGE     =           0.0000
        UZF RECHARGE     =   715327296.0000          UZF RECHARGE     =           5.7058
               GW ET     =           0.0000                 GW ET     =           0.0000
     SURFACE LEAKAGE     =           0.0000       SURFACE LEAKAGE     =           0.0000

                TOTAL IN =  2925755904.0000                  TOTAL IN =          72.6588

          OUT:                                     OUT:
          ----                                     ----
             STORAGE     =  1645971968.0000               STORAGE     =          30.9066
       CONSTANT HEAD     =           0.0000         CONSTANT HEAD     =           0.0000
               WELLS     =   315360000.0000                 WELLS     =           0.0000
     HEAD DEP BOUNDS     =     8015294.5000       HEAD DEP BOUNDS     =           0.2982
      STREAM LEAKAGE     =   475908768.0000        STREAM LEAKAGE     =          22.8117
       LAKE  SEEPAGE     =           0.0000         LAKE  SEEPAGE     =           0.0000
        UZF RECHARGE     =           0.0000          UZF RECHARGE     =           0.0000
               GW ET     =   389550144.0000                 GW ET     =          18.4510
     SURFACE LEAKAGE     =    90928168.0000       SURFACE LEAKAGE     =           0.1901

               TOTAL OUT =  2925734144.0000                 TOTAL OUT =          72.6575

                IN - OUT =       21760.0000                  IN - OUT =       1.2283E-03

     PERCENT DISCREPANCY =           0.00         PERCENT DISCREPANCY =           0.00






         TIME SUMMARY AT END OF TIME STEP   15 IN STRESS PERIOD   10
                    SECONDS     MINUTES      HOURS       DAYS        YEARS
                    -----------------------------------------------------------
   TIME STEP LENGTH 1.75200E+05  2920.0      48.667      2.0278     5.55175E-03
 STRESS PERIOD TIME 2.62800E+06  43800.      730.00      30.417     8.32763E-02
         TOTAL TIME 2.62800E+07 4.38000E+05  7300.0      304.17     0.83276    
1
1
                            STRESS PERIOD NO.   11, LENGTH =   2628000.    
                            -----------------------------------------------

                              NUMBER OF TIME STEPS =    15

                               MULTIPLIER FOR DELT =     1.000

                            INITIAL TIME STEP SIZE =   175200.0    

 WELL NO.  LAYER   ROW   COL   STRESS RATE         
 --------------------------------------------------
      1      2      6      4      -3.000    
      2      2      6      5      -3.000    
      3      2      7      4      -3.000    
      4      2      7      5      -3.000    
      5      2      8      4      -3.000    
      6      2      8      5      -3.000    
      7      2      9      4      -3.000    
      8      2      9      5      -3.000    
      9      2     10      4      -3.000    
     10      2     10      5      -3.000    

     10 WELLS

 REUSING NON-PARAMETER GHB CELLS FROM LAST STRESS PERIOD

      2 GHB CELLS

 REUSING STREAM SEGMENT DATA FROM LAST STRESS PERIOD



            AREAL INFILTRATION RATE
 READING ON UNIT   19 WITH FORMAT: (10F4.0)            

            1           2           3           4           5           6           7           8           9          10
 ........................................................................................................................
   1   1.0000E-09  2.0000E-09   0.000       0.000       0.000       0.000       0.000       0.000       0.000       0.000    
   2   2.0000E-09  1.0000E-09  2.0000E-09   0.000       0.000      8.0000E-09  8.0000E-09  5.0000E-09   0.000       0.000    
   3    0.000      5.0000E-09  1.0000E-09  1.0000E-09  8.0000E-09  8.0000E-09  5.0000E-09  5.0000E-09   0.000       0.000    
   4   8.0000E-09  5.0000E-09  1.0000E-09  1.0000E-09  1.0000E-09  1.0000E-09  1.0000E-09  1.0000E-09  2.0000E-09   0.000    
   5   8.0000E-09  5.0000E-09  1.0000E-09  1.0000E-09  1.0000E-09  1.0000E-09  1.0000E-09  1.0000E-09  1.0000E-09  1.0000E-09
   6   8.0000E-09  5.0000E-09  5.0000E-09  2.0000E-09  2.0000E-09  1.0000E-09  1.0000E-09  1.0000E-09  1.0000E-09  5.0000E-09
   7   8.0000E-09  5.0000E-09  5.0000E-09  2.0000E-09  2.0000E-09  1.0000E-09  1.0000E-09  2.0000E-09  2.0000E-09   0.000    
   8    0.000      5.0000E-09  5.0000E-09  2.0000E-09  2.0000E-09  1.0000E-09  1.0000E-09  2.0000E-09  5.0000E-09   0.000    
   9    0.000      5.0000E-09  5.0000E-09  2.0000E-09  2.0000E-09  1.0000E-09  1.0000E-09  2.0000E-09  5.0000E-09   0.000    
  10    0.000      5.0000E-09  5.0000E-09  2.0000E-09  2.0000E-09  1.0000E-09  1.0000E-09  2.0000E-09  5.0000E-09  8.0000E-09
  11    0.000      1.0000E-09  1.0000E-09  1.0000E-09  1.0000E-09  1.0000E-09  1.0000E-09  2.0000E-09  5.0000E-09   0.000    
  12   1.0000E-09  1.0000E-09  1.0000E-09  1.0000E-09  1.0000E-09  1.0000E-09  1.0000E-09  1.0000E-09  2.0000E-09   0.000    
  13   1.0000E-09  1.0000E-09  2.0000E-09  2.0000E-09  2.0000E-09  2.0000E-09  2.0000E-09  1.0000E-09  1.0000E-09   0.000    
  14    0.000      2.0000E-09  5.0000E-09  5.0000E-09  5.0000E-09  5.0000E-09  5.0000E-09  2.0000E-09  1.0000E-09   0.000    
  15    0.000       0.000      8.0000E-09  8.0000E-09  8.0000E-09  8.0000E-09   0.000       0.000       0.000       0.000    

USING ET RATE FROM PREVIOUS STRESS PERIOD. CURRENT PERIOD IS:      11

 USING ET EXTINCTION DEPTH FROM PREVIOUS STRESS PERIOD. CURRENT PERIOD IS:      11

 USING EXTINCTION WATER CONTENT FROM PREVIOUS STRESS PERIOD. CURRENT PERIOD IS:      11




 If any subsequent steady-state stress periods, min. and max. stages for each lake will be read in Record 9a.




 REUSING LAKE CONFIGURATION DATA FROM LAST STRESS PERIOD


 LAKE       PRECIP     EVAP     RUNOFF   WITHDRAW   BOTTOM     AREA
----------------------------------------------------------------------
   1     0.000E+00 4.000E-08 0.000E+00  0.000E+00 1.074E+03 2.500E+07




         C               INTERFACE CONDUCTANCES BETWEEN LAKE AND AQUIFER CELLS
   L     O          (IF TYPE = 6, CONDUCTANCE (L^2/T) IS BETWEEN AQUIFER CELL AND OVERLYING LAKE CELL.)
   A     L  L  T    (IF TYPE = 1 TO 4, CONDUCTANCES ARE PER UNIT SATURATED THICKNESS (L/T).)
   Y  R  U  A  Y
   E  O  M  K  P                        LAKEBED      C O N D U C T A N C E S
   R  W  N  E  E     DELTA Y   DELTA X  LEAKANCE   LAKEBED   AQUIFER  COMBINED
 _______________________________________________________________________________
   1  4  4  1  2    5.00E+03  5.00E+03  5.00E-02  2.50E+02  6.00E-03  6.00E-03
   1  3  5  1  3    5.00E+03  5.00E+03  5.00E-02  2.50E+02  1.20E-03  1.20E-03
   2  4  5  1  6    5.00E+03  5.00E+03  5.00E-02  1.25E+06  9.42E+00  9.42E+00
   1  5  5  1  4    5.00E+03  5.00E+03  5.00E-02  2.50E+02  6.00E-03  6.00E-03
   1  4  6  1  1    5.00E+03  5.00E+03  5.00E-02  2.50E+02  6.00E-03  6.00E-03
 
      DEAD POOL STORAGE FOR LAKE    1 BELOW SEGMENT   10 IS EQUAL TO     0.1200000000E+09
 
      LAKE     INFLOWING STREAM SEGMENT
         1                  9

 MAXIMUM NUMBER OF STREAMS INFLOWING TO A LAKE IS    1

      LAKE     OUTFLOWING STREAM SEGMENT
         1                 10

 MAXIMUM NUMBER OF STREAMS OUTFLOWING FROM A LAKE IS    1

 
 SOLVING FOR HEAD 
                                                   Max.-Head-Change                         Max.-Flux-Residual
  Residual-Control   Outer-Iter.   Inner-Iter.     Column Row Layer    Maximum-Head-Change  Column Row Layer    Maximum-Flux-Residual          L2-NORM 
          0                 1           2             3    3     2      -0.9253696592E-01       3    3    2        -0.2516516618E+01      0.7662985519E+01
          0                 2           2             3    3     2       0.8777379567E-02       3    3    2         0.2477010890E+00      0.6873621754E+00
          0                 3           1             3    3     2      -0.4947215746E-03       3    3    2        -0.1448636417E-01      0.3992544770E-01

    ------------------------------------------------
       NWT REQUIRED            3 OUTER ITERATIONS 
       AND A TOTAL OF          5 INNER ITERATIONS.
    ------------------------------------------------

 NO OUTPUT CONTROL FOR STRESS PERIOD   11   TIME STEP    1
 
 SOLVING FOR HEAD 
                                                   Max.-Head-Change                         Max.-Flux-Residual
  Residual-Control   Outer-Iter.   Inner-Iter.     Column Row Layer    Maximum-Head-Change  Column Row Layer    Maximum-Flux-Residual          L2-NORM 
          0                 1           2             3    3     2      -0.9907989261E-01       3    3    2        -0.2692046599E+01      0.7537279950E+01
          0                 2           2             3    3     2       0.9390645036E-02       3    3    2         0.2648737012E+00      0.7263401052E+00
          0                 3           1             3    3     2      -0.5287264716E-03       3    3    2        -0.1548075222E-01      0.4236848224E-01

    ------------------------------------------------
       NWT REQUIRED            3 OUTER ITERATIONS 
       AND A TOTAL OF          5 INNER ITERATIONS.
    ------------------------------------------------

 NO OUTPUT CONTROL FOR STRESS PERIOD   11   TIME STEP    2
 
 SOLVING FOR HEAD 
                                                   Max.-Head-Change                         Max.-Flux-Residual
  Residual-Control   Outer-Iter.   Inner-Iter.     Column Row Layer    Maximum-Head-Change  Column Row Layer    Maximum-Flux-Residual          L2-NORM 
          0                 1           2             3    3     2      -0.9516826872E-01       3    3    2        -0.2583433858E+01      0.7119914414E+01
          0                 2           2             3    3     2       0.9019787226E-02       3    3    2         0.2542710104E+00      0.6871520952E+00
          0                 3           1             3    3     2      -0.5079552967E-03       3    3    2        -0.1486949424E-01      0.4010700825E-01

    ------------------------------------------------
       NWT REQUIRED            3 OUTER ITERATIONS 
       AND A TOTAL OF          5 INNER ITERATIONS.
    ------------------------------------------------

 NO OUTPUT CONTROL FOR STRESS PERIOD   11   TIME STEP    3
 
 SOLVING FOR HEAD 
                                                   Max.-Head-Change                         Max.-Flux-Residual
  Residual-Control   Outer-Iter.   Inner-Iter.     Column Row Layer    Maximum-Head-Change  Column Row Layer    Maximum-Flux-Residual          L2-NORM 
          0                 1           2             3    3     2      -0.9149243122E-01       3    3    2        -0.2481419209E+01      0.6752646348E+01
          0                 2           2             3    3     2       0.8671242621E-02       3    3    2         0.2443078756E+00      0.6519508947E+00
          0                 3           1             3    3     2      -0.4884218003E-03       3    3    2        -0.1429471381E-01      0.3806338661E-01

    ------------------------------------------------
       NWT REQUIRED            3 OUTER ITERATIONS 
       AND A TOTAL OF          5 INNER ITERATIONS.
    ------------------------------------------------

 NO OUTPUT CONTROL FOR STRESS PERIOD   11   TIME STEP    4
 
 SOLVING FOR HEAD 
                                                   Max.-Head-Change                         Max.-Flux-Residual
  Residual-Control   Outer-Iter.   Inner-Iter.     Column Row Layer    Maximum-Head-Change  Column Row Layer    Maximum-Flux-Residual          L2-NORM 
          0                 1           2             3    3     2      -0.1093249200E+00       3    3    2        -0.2963859002E+01      0.7735055065E+01
          0                 2           2             3    3     2       0.1033520923E-01       3    3    2         0.2911441272E+00      0.7456762387E+00
          0                 3           1             3    3     2      -0.5798026626E-03       3    3    2        -0.1697193820E-01      0.4375731741E-01

    ------------------------------------------------
       NWT REQUIRED            3 OUTER ITERATIONS 
       AND A TOTAL OF          5 INNER ITERATIONS.
    ------------------------------------------------

 OUTPUT CONTROL FOR STRESS PERIOD   11   TIME STEP    5
    PRINT BUDGET
    SAVE BUDGET

            WELLS   PERIOD   11   STEP   5
 WELL      1   LAYER   2   ROW     6   COL     4   RATE    -3.00000    
 WELL      2   LAYER   2   ROW     6   COL     5   RATE    -3.00000    
 WELL      3   LAYER   2   ROW     7   COL     4   RATE    -3.00000    
 WELL      4   LAYER   2   ROW     7   COL     5   RATE    -3.00000    
 WELL      5   LAYER   2   ROW     8   COL     4   RATE    -3.00000    
 WELL      6   LAYER   2   ROW     8   COL     5   RATE    -3.00000    
 WELL      7   LAYER   2   ROW     9   COL     4   RATE    -3.00000    
 WELL      8   LAYER   2   ROW     9   COL     5   RATE    -3.00000    
 WELL      9   LAYER   2   ROW    10   COL     4   RATE    -3.00000    
 WELL     10   LAYER   2   ROW    10   COL     5   RATE    -3.00000    

  HEAD DEP BOUNDS   PERIOD   11   STEP     5
 BOUNDARY      1   LAYER   2   ROW    13   COL     1   RATE   -0.295168    
 BOUNDARY      2   LAYER   2   ROW    14   COL     9   RATE    0.214895    



 STREAM LISTING     PERIOD     11   STEP        5

 LAYER ROW COL. STREAM  RCH.  FLOW INTO     FLOW TO   FLOW OUT OF   OVRLND.     DIRECT     STREAM       STREAM     STREAM     STREAM   STREAMBED  STREAMBED
                SEG.NO.  NO.  STRM. RCH.    AQUIFER    STRM. RCH.    RUNOFF     PRECIP       ET          HEAD       DEPTH      WIDTH   CONDCTNC.   GRADIENT

   2    1    1     1     1    2.6315E+01  6.8574E-01   2.5629E+01  0.000E+00  0.000E+00  0.000E+00  1.09424E+03  1.194E+00  1.325E+01  5.964E-01  3.833E-01
   2    2    2     1     2    2.5629E+01  2.7397E+00   2.2890E+01  0.000E+00  0.000E+00  0.000E+00  1.08923E+03  1.169E+00  1.291E+01  9.040E-01  1.010E+00
   2    3    3     1     3    2.2890E+01  3.0443E+00   1.9845E+01  0.000E+00  0.000E+00  0.000E+00  1.08354E+03  1.123E+00  1.231E+01  7.383E-01  1.374E+00
   2    3    4     1     4    1.9845E+01  2.6141E+00   1.7231E+01  0.000E+00  0.000E+00  0.000E+00  1.07848E+03  1.076E+00  1.156E+01  6.413E-01  1.359E+00
   2    4    5     2     1    7.2312E+00  0.0000E+00   7.2312E+00  0.000E+00  0.000E+00  0.000E+00  1.07251E+03  5.737E-01  1.200E+01  0.000E+00  1.191E+00
   2    5    6     2     2    7.2312E+00  2.1131E+00   5.1181E+00  0.000E+00  0.000E+00  0.000E+00  1.06703E+03  5.218E-01  1.200E+01  6.000E-01  1.174E+00
   2    6    6     2     3    5.1181E+00  2.0448E+00   3.0734E+00  0.000E+00  0.000E+00  0.000E+00  1.06220E+03  4.079E-01  1.200E+01  6.000E-01  1.136E+00
   2    7    6     2     4    3.0734E+00  1.9635E+00   1.1098E+00  0.000E+00  0.000E+00  0.000E+00  1.05735E+03  2.726E-01  1.200E+01  6.000E-01  1.091E+00
   2    8    6     2     5    1.1098E+00  1.1098E+00   0.0000E+00  0.000E+00  0.000E+00  0.000E+00  1.05240E+03  4.194E-02  1.200E+01  6.000E-01  1.014E+00
   2    3    5     3     1    1.0000E+01  2.8252E+00   7.1748E+00  0.000E+00  0.000E+00  0.000E+00  1.07555E+03  1.909E+00  9.636E+00  7.227E-01  1.955E+00
   2    3    6     3     2    7.1748E+00  2.4905E+00   4.6843E+00  0.000E+00  0.000E+00  0.000E+00  1.07264E+03  1.727E+00  8.909E+00  6.682E-01  1.864E+00
   2    3    7     3     3    4.6843E+00  1.9718E+00   2.7125E+00  0.000E+00  0.000E+00  0.000E+00  1.06987E+03  1.555E+00  8.218E+00  5.547E-01  1.777E+00
   2    4    8     3     4    2.7125E+00  2.2567E+00   4.5579E-01  0.000E+00  0.000E+00  0.000E+00  1.06682E+03  1.364E+00  7.455E+00  6.709E-01  1.682E+00
   2    5    8     3     5    4.5579E-01  4.5579E-01   0.0000E+00  0.000E+00  0.000E+00  0.000E+00  1.06362E+03  0.000E+00  6.655E+00  4.991E-01  1.582E+00
   2    6    8     3     6    0.0000E+00  0.0000E+00   0.0000E+00  0.000E+00  0.000E+00  0.000E+00  1.06055E+03  0.000E+00  6.145E+00  1.844E-01  1.000E+00
   2    5   10     4     1    1.0000E+01  9.0525E-01   9.0947E+00  0.000E+00  0.000E+00  0.000E+00  1.07835E+03  6.210E-01  1.000E+01  2.500E-01  1.207E+00
   2    5    9     4     2    9.0947E+00  1.7835E+00   7.3113E+00  0.000E+00  0.000E+00  0.000E+00  1.07148E+03  5.670E-01  1.000E+01  5.000E-01  1.189E+00
   2    6    8     4     3    7.3113E+00  1.2257E+00   6.0855E+00  0.000E+00  0.000E+00  0.000E+00  1.06368E+03  5.021E-01  1.000E+01  3.500E-01  1.167E+00
   2    6    8     5     1    6.0855E+00  1.4716E+00   4.6139E+00  0.000E+00  0.000E+00  0.000E+00  1.05854E+03  5.396E-01  1.039E+01  4.158E-01  1.180E+00
   2    7    7     5     2    4.6139E+00  1.4897E+00   3.1242E+00  0.000E+00  0.000E+00  0.000E+00  1.05398E+03  4.817E-01  8.557E+00  4.279E-01  1.161E+00
   2    8    7     5     3    3.1242E+00  8.2855E-01   2.2957E+00  0.000E+00  0.000E+00  0.000E+00  1.04968E+03  4.253E-01  6.911E+00  2.419E-01  1.142E+00
   2    8    6     5     4    2.2957E+00  4.9455E-01   1.8011E+00  0.000E+00  0.000E+00  0.000E+00  1.04664E+03  3.856E-01  5.843E+00  1.461E-01  1.129E+00
   2    9    6     6     1    1.8011E+00  1.8011E+00   0.0000E+00  0.000E+00  0.000E+00  0.000E+00  1.04278E+03  5.669E-02  1.200E+01  6.000E-01  1.019E+00
   2   10    7     6     2    0.0000E+00  0.0000E+00   0.0000E+00  0.000E+00  0.000E+00  0.000E+00  1.03818E+03  0.000E+00  1.200E+01  6.000E-01  1.000E+00
   2   11    7     6     3    0.0000E+00  0.0000E+00   0.0000E+00  0.000E+00  0.000E+00  0.000E+00  1.03364E+03  0.000E+00  1.200E+01  6.000E-01  5.659E-01
   2   12    7     6     4    0.0000E+00 -1.2731E-01   1.2731E-01  0.000E+00  0.000E+00  0.000E+00  1.02912E+03  3.392E-02  1.200E+01  6.000E-01 -7.073E-02
   2   13    7     6     5    1.2731E-01 -7.9429E-01   9.2160E-01  0.000E+00  0.000E+00  0.000E+00  1.02603E+03  1.202E-01  1.200E+01  2.400E-01 -1.103E+00
   2   14    9     7     1    1.5000E+02  2.9038E+00   1.4710E+02  0.000E+00  0.000E+00  0.000E+00  1.03986E+03  2.284E+00  5.528E+01  5.591E+00  1.731E-01
   2   13    8     7     2    1.4710E+02  3.6523E+00   1.4344E+02  0.000E+00  0.000E+00  0.000E+00  1.03477E+03  2.266E+00  5.520E+01  6.141E+00  1.983E-01
   2   13    7     7     3    1.4344E+02  1.8497E+00   1.4159E+02  0.000E+00  0.000E+00  0.000E+00  1.02967E+03  2.251E+00  5.513E+01  5.575E+00  1.106E-01
   2   13    6     8     1    1.4252E+02 -1.9110E-01   1.4273E+02  2.007E-02  0.000E+00  0.000E+00  1.02464E+03  2.764E+00  4.008E+01  4.084E+00 -1.560E-02
   2   13    5     8     2    1.4273E+02 -3.2072E+00   1.4595E+02  2.007E-02  0.000E+00  0.000E+00  1.01840E+03  2.777E+00  4.026E+01  4.103E+00 -2.606E-01
   2   13    4     8     3    1.4595E+02 -5.8439E+00   1.5182E+02  2.007E-02  0.000E+00  0.000E+00  1.01218E+03  2.809E+00  4.073E+01  4.151E+00 -4.693E-01
   2   13    3     8     4    1.5182E+02 -6.2877E+00   1.5813E+02  2.007E-02  0.000E+00  0.000E+00  1.00598E+03  2.852E+00  4.135E+01  4.213E+00 -4.974E-01
   2   13    2     8     5    1.5813E+02 -3.8611E+00   1.6201E+02  2.007E-02  0.000E+00  0.000E+00  9.99761E+02  2.886E+00  4.185E+01  4.265E+00 -3.018E-01
   2   13    1     8     6    1.6201E+02 -2.5385E+00   1.6456E+02  1.204E-02  0.000E+00  0.000E+00  9.94783E+02  2.908E+00  4.216E+01  2.578E+00 -3.282E-01
   2    4    5     9     1    0.0000E+00  0.0000E+00   0.0000E+00  0.000E+00  0.000E+00  0.000E+00  1.06000E+03  0.000E+00  2.000E+01  2.000E-03  4.539E-01
   2    4    5    10     1    0.0000E+00  0.0000E+00   0.0000E+00  0.000E+00  0.000E+00  0.000E+00  1.08000E+03  0.000E+00  2.000E+01  2.000E-03  1.000E+00





     0  LAKE CELLS ARE DRY.

 PERIOD    11     TIME STEP     5     TIME STEP LENGTH  1.7520E+05
 PERIOD TIME  8.7600E+05     TOTAL SIMULATION TIME  2.7156E+07


                 HYDROLOGIC BUDGET SUMMARIES FOR SIMULATED LAKES
     (ALL FLUID FLUXES ARE VOLUMES ADDED TO THE LAKE DURING PRESENT TIME STEP)
     ----------------------------------------------------------------------------------------
 LAKE    STAGE         VOLUME     VOL. CHANGE      PRECIP     EVAPORATION    SPECIFIED RUNOFF     COMPUTED RUNOFF    TOTAL RUNOFF
   1  1.074500E+03  1.085850E+00 -1.200331E-01  0.000000E+00  1.198877E-01   0.000000E+00          0.000000E+00      0.000000E+00

            GROUND WATER            SURFACE WATER        WATER          UZF INFIL.
 LAKE    INFLOW     OUTFLOW      INFLOW     OUTFLOW       USE        FROM LAKE
   1  0.0000E+00  0.0000E+00  0.0000E+00  0.0000E+00  0.0000E+00       1.4546E-04

      CONNECTED LAKE   TIME-STEP         STAGE-CHANGE          PERCENT
 LAKE    INFLUX      SURFACE AREA   TIME STEP  CUMULATIVE    DISCREPANCY
   1   0.0000E+00     1.7107E+01   6.4877E-06  6.4877E-06       0.000
 --------------------------------------------------------------------------------



            CUMULATIVE HYDROLOGIC BUDGET SUMMARIES FOR SIMULATED LAKES
     (ALL FLUID FLUXES ARE SUMS OF VOLUMES ADDED TO THE LAKE SINCE INITIAL TIME)
     ---------------------------------------------------------------------------
 LAKE       PRECIP       EVAP     SPECIFIED RUNOFF   COMPUTED RUNOFF   TOTAL RUNOFF
   1     0.0000E+00  1.6033E+06       0.0000E+00       0.0000E+00       0.0000E+00

            GROUND WATER            SURFACE WATER       UZF INFIL.
 LAKE    INFLOW     OUTFLOW      INFLOW     OUTFLOW     FROM LAKE
   1  0.0000E+00  0.0000E+00  1.9325E+08  4.8785E+07    1.4286E+08

         WATER    CONNECTED LAKE   CHANGE       PERCENT
 LAKE     USE         INFLUX       IN VOL.    DISCREPANCY
   1   0.0000E+00   0.0000E+00   1.0859E+00     -0.000
 --------------------------------------------------------------------------------

 UBDSV3 SAVING "           GW ET" ON UNIT  61 AT TIME STEP 5, STRESS PERIOD 11
 UBDSV3 SAVING "    UZF RECHARGE" ON UNIT  61 AT TIME STEP 5, STRESS PERIOD 11
 UBDSV3 SAVING " SURFACE LEAKAGE" ON UNIT  61 AT TIME STEP 5, STRESS PERIOD 11


UNSATURATED ZONE PACKAGE VOLUMETRIC BUDGET FOR  TIME STEP     5 STRESS PERIOD   11
  ------------------------------------------------------------------------------



     CUMULATIVE VOLUMES      L**3       RATES FOR THIS TIME STEP      L**3/T
     ------------------                 ------------------------

           IN:                                      IN:
           ---                                      ---
        INFILTRATION =  1614992542.8568          INFILTRATION =           8.4454

          OUT:                                     OUT:
          ----                                     ----
              UZF ET =  1523939584.0076                UZF ET =          17.3604
        UZF RECHARGE =   719232034.4454          UZF RECHARGE =           4.2073

            IN - OUT =  -628179075.5961              IN - OUT =         -13.1223

          STORAGE:                                 STORAGE:
          --------                                 --------
      STORAGE CHANGE =  -627400542.3173        STORAGE CHANGE =         -13.1212

 PERCENT DISCREPANCY IS DIFFERENCE BETWEEN IN-OUT MINUS CHANGE IN STORAGE
 DIVIDED BY THE AVERAGE OF IN AND OUT TIMES 100

 PERCENT DISCREPANCY =          -0.01     PERCENT DISCREPANCY =          -0.01






1
  VOLUMETRIC BUDGET FOR ENTIRE MODEL AT END OF TIME STEP    5, STRESS PERIOD  11
  ------------------------------------------------------------------------------

     CUMULATIVE VOLUMES      L**3       RATES FOR THIS TIME STEP      L**3/T
     ------------------                 ------------------------

           IN:                                      IN:
           ---                                      ---
             STORAGE     =   244861872.0000               STORAGE     =          34.3846
       CONSTANT HEAD     =           0.0000         CONSTANT HEAD     =           0.0000
               WELLS     =           0.0000                 WELLS     =           0.0000
     HEAD DEP BOUNDS     =     5825797.5000       HEAD DEP BOUNDS     =           0.2149
      STREAM LEAKAGE     =  2030904320.0000        STREAM LEAKAGE     =          44.7209
       LAKE  SEEPAGE     =           0.0000         LAKE  SEEPAGE     =           0.0000
        UZF RECHARGE     =   719231808.0000          UZF RECHARGE     =           4.2073
               GW ET     =           0.0000                 GW ET     =           0.0000
     SURFACE LEAKAGE     =           0.0000       SURFACE LEAKAGE     =           0.0000

                TOTAL IN =  3000823808.0000                  TOTAL IN =          83.5278

          OUT:                                     OUT:
          ----                                     ----
             STORAGE     =  1658138368.0000               STORAGE     =          11.6477
       CONSTANT HEAD     =           0.0000         CONSTANT HEAD     =           0.0000
               WELLS     =   341640000.0000                 WELLS     =          30.0000
     HEAD DEP BOUNDS     =     8274852.0000       HEAD DEP BOUNDS     =           0.2952
      STREAM LEAKAGE     =   495869440.0000        STREAM LEAKAGE     =          22.8512
       LAKE  SEEPAGE     =           0.0000         LAKE  SEEPAGE     =           0.0000
        UZF RECHARGE     =           0.0000          UZF RECHARGE     =           0.0000
               GW ET     =   405830176.0000                 GW ET     =          18.6228
     SURFACE LEAKAGE     =    91046520.0000       SURFACE LEAKAGE     =           0.1077

               TOTAL OUT =  3000799232.0000                 TOTAL OUT =          83.5246

                IN - OUT =       24576.0000                  IN - OUT =       3.1509E-03

     PERCENT DISCREPANCY =           0.00         PERCENT DISCREPANCY =           0.00






         TIME SUMMARY AT END OF TIME STEP    5 IN STRESS PERIOD   11
                    SECONDS     MINUTES      HOURS       DAYS        YEARS
                    -----------------------------------------------------------
   TIME STEP LENGTH 1.75200E+05  2920.0      48.667      2.0278     5.55175E-03
 STRESS PERIOD TIME 8.76000E+05  14600.      243.33      10.139     2.77588E-02
         TOTAL TIME 2.71560E+07 4.52600E+05  7543.3      314.31     0.86052    
1
 
 SOLVING FOR HEAD 
                                                   Max.-Head-Change                         Max.-Flux-Residual
  Residual-Control   Outer-Iter.   Inner-Iter.     Column Row Layer    Maximum-Head-Change  Column Row Layer    Maximum-Flux-Residual          L2-NORM 
          0                 1           2             3    3     2      -0.1080517374E+00       3    3    2        -0.2926398904E+01      0.7642680770E+01
          0                 2           2             3    3     2       0.1021232718E-01       3    3    2         0.2874811060E+00      0.7314009155E+00
          0                 3           1             3    3     2      -0.5728576856E-03       3    3    2        -0.1676041103E-01      0.4218459300E-01

    ------------------------------------------------
       NWT REQUIRED            3 OUTER ITERATIONS 
       AND A TOTAL OF          5 INNER ITERATIONS.
    ------------------------------------------------

 NO OUTPUT CONTROL FOR STRESS PERIOD   11   TIME STEP    6
 
 SOLVING FOR HEAD 
                                                   Max.-Head-Change                         Max.-Flux-Residual
  Residual-Control   Outer-Iter.   Inner-Iter.     Column Row Layer    Maximum-Head-Change  Column Row Layer    Maximum-Flux-Residual          L2-NORM 
          0                 1           2             3    3     2      -0.1039937371E+00       3    3    2        -0.2813937284E+01      0.7301306956E+01
          0                 2           2             3    3     2       0.9828562783E-02       3    3    2         0.2765187478E+00      0.6993262658E+00
          0                 3           1             3    3     2      -0.5514272649E-03       3    3    2        -0.1612972007E-01      0.4040176677E-01

    ------------------------------------------------
       NWT REQUIRED            3 OUTER ITERATIONS 
       AND A TOTAL OF          5 INNER ITERATIONS.
    ------------------------------------------------

 NO OUTPUT CONTROL FOR STRESS PERIOD   11   TIME STEP    7
 
 SOLVING FOR HEAD 
                                                   Max.-Head-Change                         Max.-Flux-Residual
  Residual-Control   Outer-Iter.   Inner-Iter.     Column Row Layer    Maximum-Head-Change  Column Row Layer    Maximum-Flux-Residual          L2-NORM 
          0                 1           2             3    3     2      -0.1001791637E+00       3    3    2        -0.2708266089E+01      0.7002328016E+01
          0                 2           2             3    3     2       0.9462850522E-02       3    3    2         0.2660356122E+00      0.6711148235E+00
          0                 3           1             3    3     2      -0.5284831083E-03       3    3    2        -0.1542630267E-01      0.3881647144E-01

    ------------------------------------------------
       NWT REQUIRED            3 OUTER ITERATIONS 
       AND A TOTAL OF          5 INNER ITERATIONS.
    ------------------------------------------------

 NO OUTPUT CONTROL FOR STRESS PERIOD   11   TIME STEP    8
 
 SOLVING FOR HEAD 
                                                   Max.-Head-Change                         Max.-Flux-Residual
  Residual-Control   Outer-Iter.   Inner-Iter.     Column Row Layer    Maximum-Head-Change  Column Row Layer    Maximum-Flux-Residual          L2-NORM 
          0                 1           2             3    3     2      -0.1119896139E+00       3    3    2        -0.3028288838E+01      0.7924592708E+01
          0                 2           2             3    3     2       0.1054622925E-01       3    3    2         0.2964793713E+00      0.7749538546E+00
          0                 3           1             3    3     2      -0.5889020020E-03       3    3    2        -0.1718979249E-01      0.4634503603E-01

    ------------------------------------------------
       NWT REQUIRED            3 OUTER ITERATIONS 
       AND A TOTAL OF          5 INNER ITERATIONS.
    ------------------------------------------------

 NO OUTPUT CONTROL FOR STRESS PERIOD   11   TIME STEP    9
 
 SOLVING FOR HEAD 
                                                   Max.-Head-Change                         Max.-Flux-Residual
  Residual-Control   Outer-Iter.   Inner-Iter.     Column Row Layer    Maximum-Head-Change  Column Row Layer    Maximum-Flux-Residual          L2-NORM 
          0                 1           2             3    3     2      -0.1098794799E+00       3    3    2        -0.2968842022E+01      0.7683540152E+01
          0                 2           2             3    3     2       0.1035071201E-01       3    3    2         0.2907269888E+00      0.7483045436E+00
          0                 3           1             3    3     2      -0.5781443955E-03       3    3    2        -0.1686286432E-01      0.4421869817E-01

    ------------------------------------------------
       NWT REQUIRED            3 OUTER ITERATIONS 
       AND A TOTAL OF          5 INNER ITERATIONS.
    ------------------------------------------------

 OUTPUT CONTROL FOR STRESS PERIOD   11   TIME STEP   10
    PRINT BUDGET
    SAVE BUDGET

            WELLS   PERIOD   11   STEP  10
 WELL      1   LAYER   2   ROW     6   COL     4   RATE    -3.00000    
 WELL      2   LAYER   2   ROW     6   COL     5   RATE    -3.00000    
 WELL      3   LAYER   2   ROW     7   COL     4   RATE    -3.00000    
 WELL      4   LAYER   2   ROW     7   COL     5   RATE    -3.00000    
 WELL      5   LAYER   2   ROW     8   COL     4   RATE    -3.00000    
 WELL      6   LAYER   2   ROW     8   COL     5   RATE    -3.00000    
 WELL      7   LAYER   2   ROW     9   COL     4   RATE    -3.00000    
 WELL      8   LAYER   2   ROW     9   COL     5   RATE    -3.00000    
 WELL      9   LAYER   2   ROW    10   COL     4   RATE    -3.00000    
 WELL     10   LAYER   2   ROW    10   COL     5   RATE    -3.00000    

  HEAD DEP BOUNDS   PERIOD   11   STEP    10
 BOUNDARY      1   LAYER   2   ROW    13   COL     1   RATE   -0.293092    
 BOUNDARY      2   LAYER   2   ROW    14   COL     9   RATE    0.214952    



 STREAM LISTING     PERIOD     11   STEP       10

 LAYER ROW COL. STREAM  RCH.  FLOW INTO     FLOW TO   FLOW OUT OF   OVRLND.     DIRECT     STREAM       STREAM     STREAM     STREAM   STREAMBED  STREAMBED
                SEG.NO.  NO.  STRM. RCH.    AQUIFER    STRM. RCH.    RUNOFF     PRECIP       ET          HEAD       DEPTH      WIDTH   CONDCTNC.   GRADIENT

   2    1    1     1     1    1.9000E+01  6.3248E-01   1.8368E+01  0.000E+00  0.000E+00  0.000E+00  1.09413E+03  1.079E+00  1.160E+01  5.220E-01  4.039E-01
   2    2    2     1     2    1.8368E+01  2.4879E+00   1.5880E+01  0.000E+00  0.000E+00  0.000E+00  1.08911E+03  1.052E+00  1.111E+01  7.776E-01  1.067E+00
   2    3    3     1     3    1.5880E+01  2.4696E+00   1.3410E+01  0.000E+00  0.000E+00  0.000E+00  1.08342E+03  1.005E+00  1.028E+01  6.166E-01  1.335E+00
   2    3    4     1     4    1.3410E+01  2.0754E+00   1.1335E+01  0.000E+00  0.000E+00  0.000E+00  1.07837E+03  9.572E-01  9.450E+00  5.245E-01  1.319E+00
   2    4    5     2     1    1.3346E+00  0.0000E+00   1.3346E+00  0.000E+00  0.000E+00  0.000E+00  1.07214E+03  2.082E-01  1.200E+01  0.000E+00  1.069E+00
   2    5    6     2     2    1.3346E+00  1.3346E+00   0.0000E+00  0.000E+00  0.000E+00  0.000E+00  1.06656E+03  4.684E-02  1.200E+01  6.000E-01  1.016E+00
   2    6    6     2     3    0.0000E+00  0.0000E+00   0.0000E+00  0.000E+00  0.000E+00  0.000E+00  1.06179E+03  0.000E+00  1.200E+01  6.000E-01  1.000E+00
   2    7    6     2     4    0.0000E+00  0.0000E+00   0.0000E+00  0.000E+00  0.000E+00  0.000E+00  1.05708E+03  0.000E+00  1.200E+01  6.000E-01  1.000E+00
   2    8    6     2     5    0.0000E+00  0.0000E+00   0.0000E+00  0.000E+00  0.000E+00  0.000E+00  1.05236E+03  0.000E+00  1.200E+01  6.000E-01  1.000E+00
   2    3    5     3     1    1.0000E+01  2.8252E+00   7.1748E+00  0.000E+00  0.000E+00  0.000E+00  1.07555E+03  1.909E+00  9.636E+00  7.227E-01  1.955E+00
   2    3    6     3     2    7.1748E+00  2.4905E+00   4.6843E+00  0.000E+00  0.000E+00  0.000E+00  1.07264E+03  1.727E+00  8.909E+00  6.682E-01  1.864E+00
   2    3    7     3     3    4.6843E+00  1.9718E+00   2.7125E+00  0.000E+00  0.000E+00  0.000E+00  1.06987E+03  1.555E+00  8.218E+00  5.547E-01  1.777E+00
   2    4    8     3     4    2.7125E+00  2.2567E+00   4.5579E-01  0.000E+00  0.000E+00  0.000E+00  1.06682E+03  1.364E+00  7.455E+00  6.709E-01  1.682E+00
   2    5    8     3     5    4.5579E-01  4.5579E-01   0.0000E+00  0.000E+00  0.000E+00  0.000E+00  1.06362E+03  0.000E+00  6.655E+00  4.991E-01  1.582E+00
   2    6    8     3     6    0.0000E+00  0.0000E+00   0.0000E+00  0.000E+00  0.000E+00  0.000E+00  1.06055E+03  0.000E+00  6.145E+00  1.844E-01  1.000E+00
   2    5   10     4     1    1.0000E+01  9.0525E-01   9.0947E+00  0.000E+00  0.000E+00  0.000E+00  1.07835E+03  6.210E-01  1.000E+01  2.500E-01  1.207E+00
   2    5    9     4     2    9.0947E+00  1.7835E+00   7.3113E+00  0.000E+00  0.000E+00  0.000E+00  1.07148E+03  5.670E-01  1.000E+01  5.000E-01  1.189E+00
   2    6    8     4     3    7.3113E+00  1.2257E+00   6.0855E+00  0.000E+00  0.000E+00  0.000E+00  1.06368E+03  5.021E-01  1.000E+01  3.500E-01  1.167E+00
   2    6    8     5     1    6.0855E+00  1.4716E+00   4.6139E+00  0.000E+00  0.000E+00  0.000E+00  1.05854E+03  5.396E-01  1.039E+01  4.158E-01  1.180E+00
   2    7    7     5     2    4.6139E+00  1.4897E+00   3.1242E+00  0.000E+00  0.000E+00  0.000E+00  1.05398E+03  4.817E-01  8.557E+00  4.279E-01  1.161E+00
   2    8    7     5     3    3.1242E+00  8.2855E-01   2.2957E+00  0.000E+00  0.000E+00  0.000E+00  1.04968E+03  4.253E-01  6.911E+00  2.419E-01  1.142E+00
   2    8    6     5     4    2.2957E+00  4.9455E-01   1.8011E+00  0.000E+00  0.000E+00  0.000E+00  1.04664E+03  3.856E-01  5.843E+00  1.461E-01  1.129E+00
   2    9    6     6     1    1.8011E+00  1.8011E+00   0.0000E+00  0.000E+00  0.000E+00  0.000E+00  1.04278E+03  5.669E-02  1.200E+01  6.000E-01  1.019E+00
   2   10    7     6     2    0.0000E+00  0.0000E+00   0.0000E+00  0.000E+00  0.000E+00  0.000E+00  1.03818E+03  0.000E+00  1.200E+01  6.000E-01  1.000E+00
   2   11    7     6     3    0.0000E+00  0.0000E+00   0.0000E+00  0.000E+00  0.000E+00  0.000E+00  1.03364E+03  0.000E+00  1.200E+01  6.000E-01  6.509E-01
   2   12    7     6     4    0.0000E+00 -5.6771E-02   5.6771E-02  0.000E+00  0.000E+00  0.000E+00  1.02911E+03  2.090E-02  1.200E+01  6.000E-01 -3.154E-02
   2   13    7     6     5    5.6771E-02 -7.8874E-01   8.4551E-01  0.000E+00  0.000E+00  0.000E+00  1.02602E+03  1.098E-01  1.200E+01  2.400E-01 -1.095E+00
   2   14    9     7     1    1.5000E+02  2.9119E+00   1.4709E+02  0.000E+00  0.000E+00  0.000E+00  1.03986E+03  2.284E+00  5.528E+01  5.591E+00  1.736E-01
   2   13    8     7     2    1.4709E+02  3.6825E+00   1.4341E+02  0.000E+00  0.000E+00  0.000E+00  1.03477E+03  2.266E+00  5.520E+01  6.141E+00  1.999E-01
   2   13    7     7     3    1.4341E+02  2.0324E+00   1.4137E+02  0.000E+00  0.000E+00  0.000E+00  1.02967E+03  2.251E+00  5.513E+01  5.575E+00  1.215E-01
   2   13    6     8     1    1.4222E+02 -1.2054E-02   1.4224E+02  1.402E-02  0.000E+00  0.000E+00  1.02464E+03  2.761E+00  4.004E+01  4.080E+00 -9.848E-04
   2   13    5     8     2    1.4224E+02 -3.0865E+00   1.4535E+02  1.402E-02  0.000E+00  0.000E+00  1.01840E+03  2.773E+00  4.020E+01  4.097E+00 -2.511E-01
   2   13    4     8     3    1.4535E+02 -5.7894E+00   1.5115E+02  1.402E-02  0.000E+00  0.000E+00  1.01218E+03  2.804E+00  4.066E+01  4.144E+00 -4.657E-01
   2   13    3     8     4    1.5115E+02 -6.1979E+00   1.5736E+02  1.402E-02  0.000E+00  0.000E+00  1.00597E+03  2.847E+00  4.127E+01  4.206E+00 -4.912E-01
   2   13    2     8     5    1.5736E+02 -3.7040E+00   1.6108E+02  1.402E-02  0.000E+00  0.000E+00  9.99756E+02  2.881E+00  4.177E+01  4.256E+00 -2.901E-01
   2   13    1     8     6    1.6108E+02 -2.4093E+00   1.6350E+02  8.409E-03  0.000E+00  0.000E+00  9.94776E+02  2.901E+00  4.207E+01  2.572E+00 -3.122E-01
   2    4    5     9     1    0.0000E+00  0.0000E+00   0.0000E+00  0.000E+00  0.000E+00  0.000E+00  1.06000E+03  0.000E+00  2.000E+01  2.000E-03  4.605E-01
   2    4    5    10     1    0.0000E+00  0.0000E+00   0.0000E+00  0.000E+00  0.000E+00  0.000E+00  1.08000E+03  0.000E+00  2.000E+01  2.000E-03  1.000E+00





     0  LAKE CELLS ARE DRY.

 PERIOD    11     TIME STEP    10     TIME STEP LENGTH  1.7520E+05
 PERIOD TIME  1.7520E+06     TOTAL SIMULATION TIME  2.8032E+07


                 HYDROLOGIC BUDGET SUMMARIES FOR SIMULATED LAKES
     (ALL FLUID FLUXES ARE VOLUMES ADDED TO THE LAKE DURING PRESENT TIME STEP)
     ----------------------------------------------------------------------------------------
 LAKE    STAGE         VOLUME     VOL. CHANGE      PRECIP     EVAPORATION    SPECIFIED RUNOFF     COMPUTED RUNOFF    TOTAL RUNOFF
   1  1.074500E+03  6.429268E-01 -7.103598E-02  0.000000E+00  7.098494E-02   0.000000E+00          0.000000E+00      0.000000E+00

            GROUND WATER            SURFACE WATER        WATER          UZF INFIL.
 LAKE    INFLOW     OUTFLOW      INFLOW     OUTFLOW       USE        FROM LAKE
   1  0.0000E+00  0.0000E+00  0.0000E+00  0.0000E+00  0.0000E+00       5.0993E-05

      CONNECTED LAKE   TIME-STEP         STAGE-CHANGE          PERCENT
 LAKE    INFLUX      SURFACE AREA   TIME STEP  CUMULATIVE    DISCREPANCY
   1   0.0000E+00     1.0129E+01   3.8414E-06  3.8414E-06       0.000
 --------------------------------------------------------------------------------



            CUMULATIVE HYDROLOGIC BUDGET SUMMARIES FOR SIMULATED LAKES
     (ALL FLUID FLUXES ARE SUMS OF VOLUMES ADDED TO THE LAKE SINCE INITIAL TIME)
     ---------------------------------------------------------------------------
 LAKE       PRECIP       EVAP     SPECIFIED RUNOFF   COMPUTED RUNOFF   TOTAL RUNOFF
   1     0.0000E+00  1.6033E+06       0.0000E+00       0.0000E+00       0.0000E+00

            GROUND WATER            SURFACE WATER       UZF INFIL.
 LAKE    INFLOW     OUTFLOW      INFLOW     OUTFLOW     FROM LAKE
   1  0.0000E+00  0.0000E+00  1.9325E+08  4.8785E+07    1.4286E+08

         WATER    CONNECTED LAKE   CHANGE       PERCENT
 LAKE     USE         INFLUX       IN VOL.    DISCREPANCY
   1   0.0000E+00   0.0000E+00   6.4293E-01     -0.000
 --------------------------------------------------------------------------------

 UBDSV3 SAVING "           GW ET" ON UNIT  61 AT TIME STEP 10, STRESS PERIOD 11
 UBDSV3 SAVING "    UZF RECHARGE" ON UNIT  61 AT TIME STEP 10, STRESS PERIOD 11
 UBDSV3 SAVING " SURFACE LEAKAGE" ON UNIT  61 AT TIME STEP 10, STRESS PERIOD 11


UNSATURATED ZONE PACKAGE VOLUMETRIC BUDGET FOR  TIME STEP    10 STRESS PERIOD   11
  ------------------------------------------------------------------------------



     CUMULATIVE VOLUMES      L**3       RATES FOR THIS TIME STEP      L**3/T
     ------------------                 ------------------------

           IN:                                      IN:
           ---                                      ---
        INFILTRATION =  1622391165.6433          INFILTRATION =           8.4462

          OUT:                                     OUT:
          ----                                     ----
              UZF ET =  1538462071.7634                UZF ET =          15.9876
        UZF RECHARGE =   722677203.1281          UZF RECHARGE =           3.7030

            IN - OUT =  -638748109.2482              IN - OUT =         -11.2444

          STORAGE:                                 STORAGE:
          --------                                 --------
      STORAGE CHANGE =  -637968711.8024        STORAGE CHANGE =         -11.2436

 PERCENT DISCREPANCY IS DIFFERENCE BETWEEN IN-OUT MINUS CHANGE IN STORAGE
 DIVIDED BY THE AVERAGE OF IN AND OUT TIMES 100

 PERCENT DISCREPANCY =          -0.01     PERCENT DISCREPANCY =          -0.00






1
  VOLUMETRIC BUDGET FOR ENTIRE MODEL AT END OF TIME STEP   10, STRESS PERIOD  11
  ------------------------------------------------------------------------------

     CUMULATIVE VOLUMES      L**3       RATES FOR THIS TIME STEP      L**3/T
     ------------------                 ------------------------

           IN:                                      IN:
           ---                                      ---
             STORAGE     =   275871584.0000               STORAGE     =          37.6230
       CONSTANT HEAD     =           0.0000         CONSTANT HEAD     =           0.0000
               WELLS     =           0.0000                 WELLS     =           0.0000
     HEAD DEP BOUNDS     =     6014078.5000       HEAD DEP BOUNDS     =           0.2150
      STREAM LEAKAGE     =  2067058048.0000        STREAM LEAKAGE     =          37.6269
       LAKE  SEEPAGE     =           0.0000         LAKE  SEEPAGE     =           0.0000
        UZF RECHARGE     =   722676992.0000          UZF RECHARGE     =           3.7030
               GW ET     =           0.0000                 GW ET     =           0.0000
     SURFACE LEAKAGE     =           0.0000       SURFACE LEAKAGE     =           0.0000

                TOTAL IN =  3071620608.0000                  TOTAL IN =          79.1679

          OUT:                                     OUT:
          ----                                     ----
             STORAGE     =  1666506240.0000               STORAGE     =           8.2548
       CONSTANT HEAD     =           0.0000         CONSTANT HEAD     =           0.0000
               WELLS     =   367920000.0000                 WELLS     =          30.0000
     HEAD DEP BOUNDS     =     8532263.0000       HEAD DEP BOUNDS     =           0.2931
      STREAM LEAKAGE     =   515426944.0000        STREAM LEAKAGE     =          22.0447
       LAKE  SEEPAGE     =           0.0000         LAKE  SEEPAGE     =           0.0000
        UZF RECHARGE     =           0.0000          UZF RECHARGE     =           0.0000
               GW ET     =   422086720.0000                 GW ET     =          18.4969
     SURFACE LEAKAGE     =    91121128.0000       SURFACE LEAKAGE     =       7.4649E-02

               TOTAL OUT =  3071593216.0000                 TOTAL OUT =          79.1641

                IN - OUT =       27392.0000                  IN - OUT =       3.7308E-03

     PERCENT DISCREPANCY =           0.00         PERCENT DISCREPANCY =           0.00






         TIME SUMMARY AT END OF TIME STEP   10 IN STRESS PERIOD   11
                    SECONDS     MINUTES      HOURS       DAYS        YEARS
                    -----------------------------------------------------------
   TIME STEP LENGTH 1.75200E+05  2920.0      48.667      2.0278     5.55175E-03
 STRESS PERIOD TIME 1.75200E+06  29200.      486.67      20.278     5.55175E-02
         TOTAL TIME 2.80320E+07 4.67200E+05  7786.7      324.44     0.88828    
1
 
 SOLVING FOR HEAD 
                                                   Max.-Head-Change                         Max.-Flux-Residual
  Residual-Control   Outer-Iter.   Inner-Iter.     Column Row Layer    Maximum-Head-Change  Column Row Layer    Maximum-Flux-Residual          L2-NORM 
          0                 1           2             3    3     2      -0.1060421438E+00       3    3    2        -0.2862396934E+01      0.7394324027E+01
          0                 2           2             3    3     2       0.9994602681E-02       3    3    2         0.2803855891E+00      0.7201620699E+00
          0                 3           1             3    3     2      -0.5584686302E-03       3    3    2        -0.1627097541E-01      0.4250172676E-01

    ------------------------------------------------
       NWT REQUIRED            3 OUTER ITERATIONS 
       AND A TOTAL OF          5 INNER ITERATIONS.
    ------------------------------------------------

 NO OUTPUT CONTROL FOR STRESS PERIOD   11   TIME STEP   11
 
 SOLVING FOR HEAD 
                                                   Max.-Head-Change                         Max.-Flux-Residual
  Residual-Control   Outer-Iter.   Inner-Iter.     Column Row Layer    Maximum-Head-Change  Column Row Layer    Maximum-Flux-Residual          L2-NORM 
          0                 1           2             3    3     2      -0.1096942793E+00       3    3    2        -0.2960021396E+01      0.7583930126E+01
          0                 2           2             3    3     2       0.1034207671E-01       3    3    2         0.2899193120E+00      0.7465123459E+00
          0                 3           1             3    3     2      -0.5777463400E-03       3    3    2        -0.1682106046E-01      0.4457822178E-01

    ------------------------------------------------
       NWT REQUIRED            3 OUTER ITERATIONS 
       AND A TOTAL OF          5 INNER ITERATIONS.
    ------------------------------------------------

 NO OUTPUT CONTROL FOR STRESS PERIOD   11   TIME STEP   12
 
 SOLVING FOR HEAD 
                                                   Max.-Head-Change                         Max.-Flux-Residual
  Residual-Control   Outer-Iter.   Inner-Iter.     Column Row Layer    Maximum-Head-Change  Column Row Layer    Maximum-Flux-Residual          L2-NORM 
          0                 1           2             8    4     2      -0.1286335550E+00       3    3    2        -0.3093420912E+01      0.7753245020E+01
          0                 2           2             3    3     2       0.1081184881E-01       3    3    2         0.3029462505E+00      0.7522791717E+00
          0                 3           1             3    3     2      -0.6037837082E-03       3    3    2        -0.1757324164E-01      0.4379605077E-01

    ------------------------------------------------
       NWT REQUIRED            3 OUTER ITERATIONS 
       AND A TOTAL OF          5 INNER ITERATIONS.
    ------------------------------------------------

 NO OUTPUT CONTROL FOR STRESS PERIOD   11   TIME STEP   13
 
 SOLVING FOR HEAD 
                                                   Max.-Head-Change                         Max.-Flux-Residual
  Residual-Control   Outer-Iter.   Inner-Iter.     Column Row Layer    Maximum-Head-Change  Column Row Layer    Maximum-Flux-Residual          L2-NORM 
          0                 1           2             8    4     2      -0.1259378944E+00       3    3    2        -0.2987524835E+01      0.7502216012E+01
          0                 2           2             3    3     2       0.1045298466E-01       3    3    2         0.2926406222E+00      0.7275374559E+00
          0                 3           1             3    3     2      -0.5841257234E-03       3    3    2        -0.1698169823E-01      0.4234183969E-01

    ------------------------------------------------
       NWT REQUIRED            3 OUTER ITERATIONS 
       AND A TOTAL OF          5 INNER ITERATIONS.
    ------------------------------------------------

 NO OUTPUT CONTROL FOR STRESS PERIOD   11   TIME STEP   14
 
 SOLVING FOR HEAD 
                                                   Max.-Head-Change                         Max.-Flux-Residual
  Residual-Control   Outer-Iter.   Inner-Iter.     Column Row Layer    Maximum-Head-Change  Column Row Layer    Maximum-Flux-Residual          L2-NORM 
          0                 1           2             8    4     2      -0.1232638161E+00       3    3    2        -0.2889440189E+01      0.7285961067E+01
          0                 2           2             3    3     2       0.1012050810E-01       3    3    2         0.2830874483E+00      0.7063114969E+00
          0                 3           1             3    3     2      -0.5660184151E-03       3    3    2        -0.1643276769E-01      0.4109270001E-01

    ------------------------------------------------
       NWT REQUIRED            3 OUTER ITERATIONS 
       AND A TOTAL OF          5 INNER ITERATIONS.
    ------------------------------------------------

 OUTPUT CONTROL FOR STRESS PERIOD   11   TIME STEP   15
    PRINT BUDGET
    PRINT HEAD FOR ALL LAYERS
    SAVE HEAD FOR ALL LAYERS
    SAVE BUDGET

            WELLS   PERIOD   11   STEP  15
 WELL      1   LAYER   2   ROW     6   COL     4   RATE    -3.00000    
 WELL      2   LAYER   2   ROW     6   COL     5   RATE    -3.00000    
 WELL      3   LAYER   2   ROW     7   COL     4   RATE    -3.00000    
 WELL      4   LAYER   2   ROW     7   COL     5   RATE    -3.00000    
 WELL      5   LAYER   2   ROW     8   COL     4   RATE    -3.00000    
 WELL      6   LAYER   2   ROW     8   COL     5   RATE    -3.00000    
 WELL      7   LAYER   2   ROW     9   COL     4   RATE    -3.00000    
 WELL      8   LAYER   2   ROW     9   COL     5   RATE    -3.00000    
 WELL      9   LAYER   2   ROW    10   COL     4   RATE    -3.00000    
 WELL     10   LAYER   2   ROW    10   COL     5   RATE    -3.00000    

  HEAD DEP BOUNDS   PERIOD   11   STEP    15
 BOUNDARY      1   LAYER   2   ROW    13   COL     1   RATE   -0.291773    
 BOUNDARY      2   LAYER   2   ROW    14   COL     9   RATE    0.214987    



 STREAM LISTING     PERIOD     11   STEP       15

 LAYER ROW COL. STREAM  RCH.  FLOW INTO     FLOW TO   FLOW OUT OF   OVRLND.     DIRECT     STREAM       STREAM     STREAM     STREAM   STREAMBED  STREAMBED
                SEG.NO.  NO.  STRM. RCH.    AQUIFER    STRM. RCH.    RUNOFF     PRECIP       ET          HEAD       DEPTH      WIDTH   CONDCTNC.   GRADIENT

   2    1    1     1     1    1.4000E+01  5.8003E-01   1.3420E+01  0.000E+00  0.000E+00  0.000E+00  1.09403E+03  9.861E-01  9.945E+00  4.475E-01  4.320E-01
   2    2    2     1     2    1.3420E+01  2.2441E+00   1.1176E+01  0.000E+00  0.000E+00  0.000E+00  1.08901E+03  9.555E-01  9.421E+00  6.595E-01  1.134E+00
   2    3    3     1     3    1.1176E+01  2.0082E+00   9.1676E+00  0.000E+00  0.000E+00  0.000E+00  1.08332E+03  9.045E-01  8.572E+00  5.143E-01  1.301E+00
   2    3    4     1     4    9.1676E+00  1.6450E+00   7.5226E+00  0.000E+00  0.000E+00  0.000E+00  1.07826E+03  8.478E-01  7.703E+00  4.275E-01  1.283E+00
   2    4    5     2     1    0.0000E+00  0.0000E+00   0.0000E+00  0.000E+00  0.000E+00  0.000E+00  1.07193E+03  0.000E+00  1.200E+01  7.800E-01  1.000E+00
   2    5    6     2     2    0.0000E+00  0.0000E+00   0.0000E+00  0.000E+00  0.000E+00  0.000E+00  1.06651E+03  0.000E+00  1.200E+01  6.000E-01  1.000E+00
   2    6    6     2     3    0.0000E+00  0.0000E+00   0.0000E+00  0.000E+00  0.000E+00  0.000E+00  1.06179E+03  0.000E+00  1.200E+01  6.000E-01  1.000E+00
   2    7    6     2     4    0.0000E+00  0.0000E+00   0.0000E+00  0.000E+00  0.000E+00  0.000E+00  1.05708E+03  0.000E+00  1.200E+01  6.000E-01  1.000E+00
   2    8    6     2     5    0.0000E+00  0.0000E+00   0.0000E+00  0.000E+00  0.000E+00  0.000E+00  1.05236E+03  0.000E+00  1.200E+01  6.000E-01  1.000E+00
   2    3    5     3     1    7.5226E+00  2.8252E+00   4.6974E+00  0.000E+00  0.000E+00  0.000E+00  1.07555E+03  1.909E+00  9.636E+00  7.227E-01  1.955E+00
   2    3    6     3     2    4.6974E+00  2.4905E+00   2.2069E+00  0.000E+00  0.000E+00  0.000E+00  1.07264E+03  1.727E+00  8.909E+00  6.682E-01  1.864E+00
   2    3    7     3     3    2.2069E+00  1.9718E+00   2.3512E-01  0.000E+00  0.000E+00  0.000E+00  1.06987E+03  1.555E+00  8.218E+00  5.547E-01  1.777E+00
   2    4    8     3     4    2.3512E-01  2.3512E-01   0.0000E+00  0.000E+00  0.000E+00  0.000E+00  1.06682E+03  0.000E+00  7.455E+00  6.709E-01  1.682E+00
   2    5    8     3     5    0.0000E+00  0.0000E+00   0.0000E+00  0.000E+00  0.000E+00  0.000E+00  1.06245E+03  0.000E+00  6.655E+00  4.991E-01  1.000E+00
   2    6    8     3     6    0.0000E+00  0.0000E+00   0.0000E+00  0.000E+00  0.000E+00  0.000E+00  1.06055E+03  0.000E+00  6.145E+00  1.844E-01  1.000E+00
   2    5   10     4     1    1.0000E+01  9.0525E-01   9.0947E+00  0.000E+00  0.000E+00  0.000E+00  1.07835E+03  6.210E-01  1.000E+01  2.500E-01  1.207E+00
   2    5    9     4     2    9.0947E+00  1.7835E+00   7.3113E+00  0.000E+00  0.000E+00  0.000E+00  1.07148E+03  5.670E-01  1.000E+01  5.000E-01  1.189E+00
   2    6    8     4     3    7.3113E+00  1.2257E+00   6.0855E+00  0.000E+00  0.000E+00  0.000E+00  1.06368E+03  5.021E-01  1.000E+01  3.500E-01  1.167E+00
   2    6    8     5     1    6.0855E+00  1.4716E+00   4.6139E+00  0.000E+00  0.000E+00  0.000E+00  1.05854E+03  5.396E-01  1.039E+01  4.158E-01  1.180E+00
   2    7    7     5     2    4.6139E+00  1.4897E+00   3.1242E+00  0.000E+00  0.000E+00  0.000E+00  1.05398E+03  4.817E-01  8.557E+00  4.279E-01  1.161E+00
   2    8    7     5     3    3.1242E+00  8.2855E-01   2.2957E+00  0.000E+00  0.000E+00  0.000E+00  1.04968E+03  4.253E-01  6.911E+00  2.419E-01  1.142E+00
   2    8    6     5     4    2.2957E+00  4.9455E-01   1.8011E+00  0.000E+00  0.000E+00  0.000E+00  1.04664E+03  3.856E-01  5.843E+00  1.461E-01  1.129E+00
   2    9    6     6     1    1.8011E+00  1.8011E+00   0.0000E+00  0.000E+00  0.000E+00  0.000E+00  1.04278E+03  5.669E-02  1.200E+01  6.000E-01  1.019E+00
   2   10    7     6     2    0.0000E+00  0.0000E+00   0.0000E+00  0.000E+00  0.000E+00  0.000E+00  1.03818E+03  0.000E+00  1.200E+01  6.000E-01  1.000E+00
   2   11    7     6     3    0.0000E+00  0.0000E+00   0.0000E+00  0.000E+00  0.000E+00  0.000E+00  1.03364E+03  0.000E+00  1.200E+01  6.000E-01  7.177E-01
   2   12    7     6     4    0.0000E+00 -2.6102E-03   2.6102E-03  0.000E+00  0.000E+00  0.000E+00  1.02909E+03  3.338E-03  1.200E+01  6.000E-01 -1.450E-03
   2   13    7     6     5    2.6102E-03 -7.8564E-01   7.8825E-01  0.000E+00  0.000E+00  0.000E+00  1.02601E+03  1.015E-01  1.200E+01  2.400E-01 -1.091E+00
   2   14    9     7     1    1.5000E+02  2.9171E+00   1.4708E+02  0.000E+00  0.000E+00  0.000E+00  1.03986E+03  2.284E+00  5.528E+01  5.591E+00  1.739E-01
   2   13    8     7     2    1.4708E+02  3.7062E+00   1.4338E+02  0.000E+00  0.000E+00  0.000E+00  1.03477E+03  2.266E+00  5.520E+01  6.140E+00  2.012E-01
   2   13    7     7     3    1.4338E+02  2.1482E+00   1.4123E+02  0.000E+00  0.000E+00  0.000E+00  1.02967E+03  2.250E+00  5.513E+01  5.574E+00  1.285E-01
   2   13    6     8     1    1.4202E+02  8.5005E-02   1.4194E+02  1.149E-02  0.000E+00  0.000E+00  1.02463E+03  2.759E+00  4.001E+01  4.077E+00  6.949E-03
   2   13    5     8     2    1.4194E+02 -3.0266E+00   1.4498E+02  1.149E-02  0.000E+00  0.000E+00  1.01840E+03  2.770E+00  4.017E+01  4.093E+00 -2.465E-01
   2   13    4     8     3    1.4498E+02 -5.7643E+00   1.5076E+02  1.149E-02  0.000E+00  0.000E+00  1.01218E+03  2.802E+00  4.063E+01  4.140E+00 -4.641E-01
   2   13    3     8     4    1.5076E+02 -6.1568E+00   1.5693E+02  1.149E-02  0.000E+00  0.000E+00  1.00597E+03  2.844E+00  4.123E+01  4.202E+00 -4.884E-01
   2   13    2     8     5    1.5693E+02 -3.6240E+00   1.6056E+02  1.149E-02  0.000E+00  0.000E+00  9.99752E+02  2.877E+00  4.172E+01  4.252E+00 -2.841E-01
   2   13    1     8     6    1.6056E+02 -2.3267E+00   1.6289E+02  6.895E-03  0.000E+00  0.000E+00  9.94773E+02  2.897E+00  4.201E+01  2.569E+00 -3.019E-01
   2    4    5     9     1    0.0000E+00  0.0000E+00   0.0000E+00  0.000E+00  0.000E+00  0.000E+00  1.06000E+03  0.000E+00  2.000E+01  2.000E-03  4.773E-01
   2    4    5    10     1    0.0000E+00  0.0000E+00   0.0000E+00  0.000E+00  0.000E+00  0.000E+00  1.08000E+03  0.000E+00  2.000E+01  2.000E-03  1.000E+00





     0  LAKE CELLS ARE DRY.

 PERIOD    11     TIME STEP    15     TIME STEP LENGTH  1.7520E+05
 PERIOD TIME  2.6280E+06     TOTAL SIMULATION TIME  2.8908E+07


                 HYDROLOGIC BUDGET SUMMARIES FOR SIMULATED LAKES
     (ALL FLUID FLUXES ARE VOLUMES ADDED TO THE LAKE DURING PRESENT TIME STEP)
     ----------------------------------------------------------------------------------------
 LAKE    STAGE         VOLUME     VOL. CHANGE      PRECIP     EVAPORATION    SPECIFIED RUNOFF     COMPUTED RUNOFF    TOTAL RUNOFF
   1  1.074500E+03  3.807431E-01 -4.205537E-02  0.000000E+00  4.203748E-02   0.000000E+00          0.000000E+00      0.000000E+00

            GROUND WATER            SURFACE WATER        WATER          UZF INFIL.
 LAKE    INFLOW     OUTFLOW      INFLOW     OUTFLOW       USE        FROM LAKE
   1  0.0000E+00  0.0000E+00  0.0000E+00  0.0000E+00  0.0000E+00       1.7883E-05

      CONNECTED LAKE   TIME-STEP         STAGE-CHANGE          PERCENT
 LAKE    INFLUX      SURFACE AREA   TIME STEP  CUMULATIVE    DISCREPANCY
   1   0.0000E+00     5.9985E+00   2.2749E-06  2.2749E-06       0.000
 --------------------------------------------------------------------------------



            CUMULATIVE HYDROLOGIC BUDGET SUMMARIES FOR SIMULATED LAKES
     (ALL FLUID FLUXES ARE SUMS OF VOLUMES ADDED TO THE LAKE SINCE INITIAL TIME)
     ---------------------------------------------------------------------------
 LAKE       PRECIP       EVAP     SPECIFIED RUNOFF   COMPUTED RUNOFF   TOTAL RUNOFF
   1     0.0000E+00  1.6033E+06       0.0000E+00       0.0000E+00       0.0000E+00

            GROUND WATER            SURFACE WATER       UZF INFIL.
 LAKE    INFLOW     OUTFLOW      INFLOW     OUTFLOW     FROM LAKE
   1  0.0000E+00  0.0000E+00  1.9325E+08  4.8785E+07    1.4286E+08

         WATER    CONNECTED LAKE   CHANGE       PERCENT
 LAKE     USE         INFLUX       IN VOL.    DISCREPANCY
   1   0.0000E+00   0.0000E+00   3.8074E-01     -0.000
 --------------------------------------------------------------------------------

 UBDSV3 SAVING "           GW ET" ON UNIT  61 AT TIME STEP 15, STRESS PERIOD 11
 UBDSV3 SAVING "    UZF RECHARGE" ON UNIT  61 AT TIME STEP 15, STRESS PERIOD 11
 UBDSV3 SAVING " SURFACE LEAKAGE" ON UNIT  61 AT TIME STEP 15, STRESS PERIOD 11


UNSATURATED ZONE PACKAGE VOLUMETRIC BUDGET FOR  TIME STEP    15 STRESS PERIOD   11
  ------------------------------------------------------------------------------



     CUMULATIVE VOLUMES      L**3       RATES FOR THIS TIME STEP      L**3/T
     ------------------                 ------------------------

           IN:                                      IN:
           ---                                      ---
        INFILTRATION =  1629790222.2186          INFILTRATION =           8.4465

          OUT:                                     OUT:
          ----                                     ----
              UZF ET =  1549800374.2552                UZF ET =          10.0163
        UZF RECHARGE =   725689070.9524          UZF RECHARGE =           3.2761

            IN - OUT =  -645699222.9889              IN - OUT =          -4.8459

          STORAGE:                                 STORAGE:
          --------                                 --------
      STORAGE CHANGE =  -644919574.3738        STORAGE CHANGE =          -4.8458

 PERCENT DISCREPANCY IS DIFFERENCE BETWEEN IN-OUT MINUS CHANGE IN STORAGE
 DIVIDED BY THE AVERAGE OF IN AND OUT TIMES 100

 PERCENT DISCREPANCY =          -0.01     PERCENT DISCREPANCY =          -0.00






1
              HEAD IN LAYER 1 AT END OF TIME STEP 15 IN STRESS PERIOD 11
  ---------------------------------------------------------------------------

           1       2       3       4       5       6       7       8       9      10
 ...................................................................................
   1  6999.00 6999.00 6999.00 6999.00 6999.00 6999.00 6999.00 6999.00 6999.00 6999.00
   2  6999.00 6999.00 6999.00 6999.00 6999.00 6999.00 6999.00 6999.00 6999.00 6999.00
   3  6999.00 6999.00 6999.00 6999.00 6999.00 6999.00 6999.00 6999.00 6999.00 6999.00
   4  6999.00 6999.00 6999.00 6999.00 1074.50 6999.00 6999.00 6999.00 6999.00 6999.00
   5  6999.00 6999.00 6999.00 6999.00 6999.00 6999.00 6999.00 6999.00 6999.00 6999.00
   6  6999.00 6999.00 6999.00 6999.00 6999.00 6999.00 6999.00 6999.00 6999.00 6999.00
   7  6999.00 6999.00 6999.00 6999.00 6999.00 6999.00 6999.00 6999.00 6999.00 6999.00
   8  6999.00 6999.00 6999.00 6999.00 6999.00 6999.00 6999.00 6999.00 6999.00 6999.00
   9  6999.00 6999.00 6999.00 6999.00 6999.00 6999.00 6999.00 6999.00 6999.00 6999.00
  10  6999.00 6999.00 6999.00 6999.00 6999.00 6999.00 6999.00 6999.00 6999.00 6999.00
  11  6999.00 6999.00 6999.00 6999.00 6999.00 6999.00 6999.00 6999.00 6999.00 6999.00
  12  6999.00 6999.00 6999.00 6999.00 6999.00 6999.00 6999.00 6999.00 6999.00 6999.00
  13  6999.00 6999.00 6999.00 6999.00 6999.00 6999.00 6999.00 6999.00 6999.00 6999.00
  14  6999.00 6999.00 6999.00 6999.00 6999.00 6999.00 6999.00 6999.00 6999.00 6999.00
  15  6999.00 6999.00 6999.00 6999.00 6999.00 6999.00 6999.00 6999.00 6999.00 6999.00
1
              HEAD IN LAYER 2 AT END OF TIME STEP 15 IN STRESS PERIOD 11
  ---------------------------------------------------------------------------

           1       2       3       4       5       6       7       8       9      10
 ...................................................................................
   1  1092.74 1089.35 6999.00 6999.00 6999.00 6999.00 6999.00 6999.00 6999.00 6999.00
   2  1088.82 1085.61 1080.39 6999.00 6999.00 1067.59 1066.90 1065.54 6999.00 6999.00
   3  6999.00 1075.91 1073.29 1068.73 1067.25 1066.19 1065.57 1063.91 6999.00 6999.00
   4  1062.22 1064.74 1064.80 1061.12 1058.57 1057.54 1057.90 1060.06 1058.23 6999.00
   5  1058.03 1056.48 1055.95 1054.57 1053.91 1053.78 1053.17 1053.77 1056.27 1058.04
   6  1053.85 1050.72 1049.49 1048.56 1048.75 1050.12 1050.63 1051.80 1053.06 1056.93
   7  1050.87 1045.57 1044.15 1043.56 1044.27 1046.23 1047.53 1048.81 1049.50 6999.00
   8  6999.00 1039.80 1039.18 1038.91 1039.79 1041.98 1043.33 1044.95 1045.42 6999.00
   9  6999.00 1033.76 1033.85 1033.98 1035.08 1037.54 1038.61 1039.18 1041.03 6999.00
  10  6999.00 1027.65 1028.34 1029.22 1030.68 1033.11 1034.47 1035.43 1037.63 1040.75
  11  6999.00 1020.08 1021.55 1024.86 1027.07 1029.56 1031.48 1033.00 1035.27 6999.00
  12  1003.19 1009.91 1014.30 1019.05 1022.81 1026.41 1029.10 1031.56 1034.88 6999.00
  13   995.68 1000.60 1007.43 1013.57 1019.13 1024.61 1029.28 1034.16 1036.73 6999.00
  14  6999.00 1007.12 1010.82 1015.77 1020.86 1025.72 1030.15 1035.19 1039.34 6999.00
  15  6999.00 6999.00 1018.84 1021.62 1025.16 1028.04 6999.00 6999.00 6999.00 6999.00

 HEAD WILL BE SAVED ON UNIT   58 AT END OF TIME STEP   15, STRESS PERIOD   11
1
  VOLUMETRIC BUDGET FOR ENTIRE MODEL AT END OF TIME STEP   15, STRESS PERIOD  11
  ------------------------------------------------------------------------------

     CUMULATIVE VOLUMES      L**3       RATES FOR THIS TIME STEP      L**3/T
     ------------------                 ------------------------

           IN:                                      IN:
           ---                                      ---
             STORAGE     =   309904320.0000               STORAGE     =          39.4148
       CONSTANT HEAD     =           0.0000         CONSTANT HEAD     =           0.0000
               WELLS     =           0.0000                 WELLS     =           0.0000
     HEAD DEP BOUNDS     =     6202394.0000       HEAD DEP BOUNDS     =           0.2150
      STREAM LEAKAGE     =  2097102464.0000        STREAM LEAKAGE     =          32.8565
       LAKE  SEEPAGE     =           0.0000         LAKE  SEEPAGE     =           0.0000
        UZF RECHARGE     =   725688832.0000          UZF RECHARGE     =           3.2761
               GW ET     =           0.0000                 GW ET     =           0.0000
     SURFACE LEAKAGE     =           0.0000       SURFACE LEAKAGE     =           0.0000

                TOTAL IN =  3138897920.0000                  TOTAL IN =          75.7624

          OUT:                                     OUT:
          ----                                     ----
             STORAGE     =  1671914752.0000               STORAGE     =           5.2115
       CONSTANT HEAD     =           0.0000         CONSTANT HEAD     =           0.0000
               WELLS     =   394200000.0000                 WELLS     =          30.0000
     HEAD DEP BOUNDS     =     8788280.0000       HEAD DEP BOUNDS     =           0.2918
      STREAM LEAKAGE     =   534532928.0000        STREAM LEAKAGE     =          21.6866
       LAKE  SEEPAGE     =           0.0000         LAKE  SEEPAGE     =           0.0000
        UZF RECHARGE     =           0.0000          UZF RECHARGE     =           0.0000
               GW ET     =   438252448.0000                 GW ET     =          18.5075
     SURFACE LEAKAGE     =    91178648.0000       SURFACE LEAKAGE     =       6.0890E-02

               TOTAL OUT =  3138867200.0000                 TOTAL OUT =          75.7582

                IN - OUT =       30720.0000                  IN - OUT =       4.1122E-03

     PERCENT DISCREPANCY =           0.00         PERCENT DISCREPANCY =           0.01






         TIME SUMMARY AT END OF TIME STEP   15 IN STRESS PERIOD   11
                    SECONDS     MINUTES      HOURS       DAYS        YEARS
                    -----------------------------------------------------------
   TIME STEP LENGTH 1.75200E+05  2920.0      48.667      2.0278     5.55175E-03
 STRESS PERIOD TIME 2.62800E+06  43800.      730.00      30.417     8.32763E-02
         TOTAL TIME 2.89080E+07 4.81800E+05  8030.0      334.58     0.91604    
1
1
                            STRESS PERIOD NO.   12, LENGTH =  0.2102400E+08
                            -----------------------------------------------

                              NUMBER OF TIME STEPS =   120

                               MULTIPLIER FOR DELT =     1.000

                            INITIAL TIME STEP SIZE =   175200.0    

      0 WELLS

 REUSING NON-PARAMETER GHB CELLS FROM LAST STRESS PERIOD

      2 GHB CELLS

 REUSING STREAM SEGMENT DATA FROM LAST STRESS PERIOD



            AREAL INFILTRATION RATE
 READING ON UNIT   19 WITH FORMAT: (10F4.0)            

            1           2           3           4           5           6           7           8           9          10
 ........................................................................................................................
   1   1.0000E-09  2.0000E-09   0.000       0.000       0.000       0.000       0.000       0.000       0.000       0.000    
   2   2.0000E-09  1.0000E-09  2.0000E-09   0.000       0.000      8.0000E-09  8.0000E-09  5.0000E-09   0.000       0.000    
   3    0.000      5.0000E-09  1.0000E-09  1.0000E-09  8.0000E-09  8.0000E-09  5.0000E-09  5.0000E-09   0.000       0.000    
   4   8.0000E-09  5.0000E-09  1.0000E-09  1.0000E-09  1.0000E-09  1.0000E-09  1.0000E-09  1.0000E-09  2.0000E-09   0.000    
   5   8.0000E-09  5.0000E-09  1.0000E-09  1.0000E-09  1.0000E-09  1.0000E-09  1.0000E-09  1.0000E-09  1.0000E-09  1.0000E-09
   6   8.0000E-09  5.0000E-09  5.0000E-09  2.0000E-09  2.0000E-09  1.0000E-09  1.0000E-09  1.0000E-09  1.0000E-09  5.0000E-09
   7   8.0000E-09  5.0000E-09  5.0000E-09  2.0000E-09  2.0000E-09  1.0000E-09  1.0000E-09  2.0000E-09  2.0000E-09   0.000    
   8    0.000      5.0000E-09  5.0000E-09  2.0000E-09  2.0000E-09  1.0000E-09  1.0000E-09  2.0000E-09  5.0000E-09   0.000    
   9    0.000      5.0000E-09  5.0000E-09  2.0000E-09  2.0000E-09  1.0000E-09  1.0000E-09  2.0000E-09  5.0000E-09   0.000    
  10    0.000      5.0000E-09  5.0000E-09  2.0000E-09  2.0000E-09  1.0000E-09  1.0000E-09  2.0000E-09  5.0000E-09  8.0000E-09
  11    0.000      1.0000E-09  1.0000E-09  1.0000E-09  1.0000E-09  1.0000E-09  1.0000E-09  2.0000E-09  5.0000E-09   0.000    
  12   1.0000E-09  1.0000E-09  1.0000E-09  1.0000E-09  1.0000E-09  1.0000E-09  1.0000E-09  1.0000E-09  2.0000E-09   0.000    
  13   1.0000E-09  1.0000E-09  2.0000E-09  2.0000E-09  2.0000E-09  2.0000E-09  2.0000E-09  1.0000E-09  1.0000E-09   0.000    
  14    0.000      2.0000E-09  5.0000E-09  5.0000E-09  5.0000E-09  5.0000E-09  5.0000E-09  2.0000E-09  1.0000E-09   0.000    
  15    0.000       0.000      8.0000E-09  8.0000E-09  8.0000E-09  8.0000E-09   0.000       0.000       0.000       0.000    

USING ET RATE FROM PREVIOUS STRESS PERIOD. CURRENT PERIOD IS:      12

 USING ET EXTINCTION DEPTH FROM PREVIOUS STRESS PERIOD. CURRENT PERIOD IS:      12

 USING EXTINCTION WATER CONTENT FROM PREVIOUS STRESS PERIOD. CURRENT PERIOD IS:      12




 If any subsequent steady-state stress periods, min. and max. stages for each lake will be read in Record 9a.




 REUSING LAKE CONFIGURATION DATA FROM LAST STRESS PERIOD


 LAKE       PRECIP     EVAP     RUNOFF   WITHDRAW   BOTTOM     AREA
----------------------------------------------------------------------
   1     0.000E+00 4.000E-08 0.000E+00  0.000E+00 1.074E+03 2.500E+07




         C               INTERFACE CONDUCTANCES BETWEEN LAKE AND AQUIFER CELLS
   L     O          (IF TYPE = 6, CONDUCTANCE (L^2/T) IS BETWEEN AQUIFER CELL AND OVERLYING LAKE CELL.)
   A     L  L  T    (IF TYPE = 1 TO 4, CONDUCTANCES ARE PER UNIT SATURATED THICKNESS (L/T).)
   Y  R  U  A  Y
   E  O  M  K  P                        LAKEBED      C O N D U C T A N C E S
   R  W  N  E  E     DELTA Y   DELTA X  LEAKANCE   LAKEBED   AQUIFER  COMBINED
 _______________________________________________________________________________
   1  4  4  1  2    5.00E+03  5.00E+03  5.00E-02  2.50E+02  6.00E-03  6.00E-03
   1  3  5  1  3    5.00E+03  5.00E+03  5.00E-02  2.50E+02  1.20E-03  1.20E-03
   2  4  5  1  6    5.00E+03  5.00E+03  5.00E-02  1.25E+06  9.42E+00  9.42E+00
   1  5  5  1  4    5.00E+03  5.00E+03  5.00E-02  2.50E+02  6.00E-03  6.00E-03
   1  4  6  1  1    5.00E+03  5.00E+03  5.00E-02  2.50E+02  6.00E-03  6.00E-03
 
      DEAD POOL STORAGE FOR LAKE    1 BELOW SEGMENT   10 IS EQUAL TO     0.1200000000E+09
 
      LAKE     INFLOWING STREAM SEGMENT
         1                  9

 MAXIMUM NUMBER OF STREAMS INFLOWING TO A LAKE IS    1

      LAKE     OUTFLOWING STREAM SEGMENT
         1                 10

 MAXIMUM NUMBER OF STREAMS OUTFLOWING FROM A LAKE IS    1

 
 SOLVING FOR HEAD 
                                                   Max.-Head-Change                         Max.-Flux-Residual
  Residual-Control   Outer-Iter.   Inner-Iter.     Column Row Layer    Maximum-Head-Change  Column Row Layer    Maximum-Flux-Residual          L2-NORM 
          0                 1           2             3    3     2      -0.1023973947E+00       3    3    2        -0.2754038075E+01      0.8496805343E+01
          0                 2           2             3    3     2       0.9658608570E-02       3    3    2         0.2698986247E+00      0.8329542454E+00
          0                 3           1             3    3     2      -0.5404258460E-03       3    3    2        -0.1567477052E-01      0.4914025771E-01

    ------------------------------------------------
       NWT REQUIRED            3 OUTER ITERATIONS 
       AND A TOTAL OF          5 INNER ITERATIONS.
    ------------------------------------------------

 NO OUTPUT CONTROL FOR STRESS PERIOD   12   TIME STEP    1
 
 SOLVING FOR HEAD 
                                                   Max.-Head-Change                         Max.-Flux-Residual
  Residual-Control   Outer-Iter.   Inner-Iter.     Column Row Layer    Maximum-Head-Change  Column Row Layer    Maximum-Flux-Residual          L2-NORM 
          0                 1           2             3    3     2      -0.9758250604E-01       3    3    2        -0.2621708709E+01      0.7924751866E+01
          0                 2           2             3    3     2       0.9205566052E-02       3    3    2         0.2570111626E+00      0.7779558437E+00
          0                 3           1             3    3     2      -0.5153212414E-03       3    3    2        -0.1493418553E-01      0.4603871575E-01

    ------------------------------------------------
       NWT REQUIRED            3 OUTER ITERATIONS 
       AND A TOTAL OF          5 INNER ITERATIONS.
    ------------------------------------------------

 NO OUTPUT CONTROL FOR STRESS PERIOD   12   TIME STEP    2
 
 SOLVING FOR HEAD 
                                                   Max.-Head-Change                         Max.-Flux-Residual
  Residual-Control   Outer-Iter.   Inner-Iter.     Column Row Layer    Maximum-Head-Change  Column Row Layer    Maximum-Flux-Residual          L2-NORM 
          0                 1           2             3    3     2      -0.9469611280E-01       3    3    2        -0.2541772537E+01      0.7507529896E+01
          0                 2           2             3    3     2       0.8936950572E-02       3    3    2         0.2492228534E+00      0.7287156319E+00
          0                 3           1             3    3     2      -0.5006082521E-03       3    3    2        -0.1448637675E-01      0.4222445910E-01

    ------------------------------------------------
       NWT REQUIRED            3 OUTER ITERATIONS 
       AND A TOTAL OF          5 INNER ITERATIONS.
    ------------------------------------------------

 NO OUTPUT CONTROL FOR STRESS PERIOD   12   TIME STEP    3
 
 SOLVING FOR HEAD 
                                                   Max.-Head-Change                         Max.-Flux-Residual
  Residual-Control   Outer-Iter.   Inner-Iter.     Column Row Layer    Maximum-Head-Change  Column Row Layer    Maximum-Flux-Residual          L2-NORM 
          0                 1           2             3    3     2      -0.9263711485E-01       3    3    2        -0.2484503095E+01      0.7185667495E+01
          0                 2           2             3    3     2       0.8744801235E-02       3    3    2         0.2436357461E+00      0.6813877033E+00
          0                 3           1             3    3     2      -0.4901567184E-03       3    3    2        -0.1416448216E-01      0.3766384695E-01

    ------------------------------------------------
       NWT REQUIRED            3 OUTER ITERATIONS 
       AND A TOTAL OF          5 INNER ITERATIONS.
    ------------------------------------------------

 NO OUTPUT CONTROL FOR STRESS PERIOD   12   TIME STEP    4
 
 SOLVING FOR HEAD 
                                                   Max.-Head-Change                         Max.-Flux-Residual
  Residual-Control   Outer-Iter.   Inner-Iter.     Column Row Layer    Maximum-Head-Change  Column Row Layer    Maximum-Flux-Residual          L2-NORM 
          0                 1           2             7    3     2      -0.1462980055E+00       3    3    2        -0.2798047637E+01      0.7629098317E+01
          0                 2           2             8    4     2       0.1194149753E-01       3    3    2         0.2737780373E+00      0.6766441812E+00
          0                 3           1             8    4     2      -0.6903832252E-03       3    3    2        -0.1585942183E-01      0.3717537298E-01

    ------------------------------------------------
       NWT REQUIRED            3 OUTER ITERATIONS 
       AND A TOTAL OF          5 INNER ITERATIONS.
    ------------------------------------------------

 OUTPUT CONTROL FOR STRESS PERIOD   12   TIME STEP    5
    PRINT BUDGET
    SAVE BUDGET

  HEAD DEP BOUNDS   PERIOD   12   STEP     5
 BOUNDARY      1   LAYER   2   ROW    13   COL     1   RATE   -0.290847    
 BOUNDARY      2   LAYER   2   ROW    14   COL     9   RATE    0.215067    



 STREAM LISTING     PERIOD     12   STEP        5

 LAYER ROW COL. STREAM  RCH.  FLOW INTO     FLOW TO   FLOW OUT OF   OVRLND.     DIRECT     STREAM       STREAM     STREAM     STREAM   STREAMBED  STREAMBED
                SEG.NO.  NO.  STRM. RCH.    AQUIFER    STRM. RCH.    RUNOFF     PRECIP       ET          HEAD       DEPTH      WIDTH   CONDCTNC.   GRADIENT

   2    1    1     1     1    1.1000E+01  5.4942E-01   1.0451E+01  0.000E+00  0.000E+00  0.000E+00  1.09397E+03  9.184E-01  8.801E+00  3.961E-01  4.624E-01
   2    2    2     1     2    1.0451E+01  2.0660E+00   8.3846E+00  0.000E+00  0.000E+00  0.000E+00  1.08894E+03  8.823E-01  8.227E+00  5.759E-01  1.196E+00
   2    3    3     1     3    8.3846E+00  1.6718E+00   6.7128E+00  0.000E+00  0.000E+00  0.000E+00  1.08324E+03  8.202E-01  7.294E+00  4.376E-01  1.273E+00
   2    3    4     1     4    6.7128E+00  1.3610E+00   5.3518E+00  0.000E+00  0.000E+00  0.000E+00  1.07818E+03  7.721E-01  6.501E+00  3.608E-01  1.257E+00
   2    4    5     2     1    0.0000E+00  0.0000E+00   0.0000E+00  0.000E+00  0.000E+00  0.000E+00  1.07193E+03  0.000E+00  1.200E+01  7.800E-01  1.000E+00
   2    5    6     2     2    0.0000E+00  0.0000E+00   0.0000E+00  0.000E+00  0.000E+00  0.000E+00  1.06651E+03  0.000E+00  1.200E+01  6.000E-01  1.000E+00
   2    6    6     2     3    0.0000E+00  0.0000E+00   0.0000E+00  0.000E+00  0.000E+00  0.000E+00  1.06179E+03  0.000E+00  1.200E+01  6.000E-01  1.000E+00
   2    7    6     2     4    0.0000E+00  0.0000E+00   0.0000E+00  0.000E+00  0.000E+00  0.000E+00  1.05708E+03  0.000E+00  1.200E+01  6.000E-01  1.000E+00
   2    8    6     2     5    0.0000E+00  0.0000E+00   0.0000E+00  0.000E+00  0.000E+00  0.000E+00  1.05236E+03  0.000E+00  1.200E+01  6.000E-01  1.000E+00
   2    3    5     3     1    5.3518E+00  2.8252E+00   2.5266E+00  0.000E+00  0.000E+00  0.000E+00  1.07555E+03  1.909E+00  9.636E+00  7.227E-01  1.955E+00
   2    3    6     3     2    2.5266E+00  2.4905E+00   3.6066E-02  0.000E+00  0.000E+00  0.000E+00  1.07264E+03  1.727E+00  8.909E+00  6.682E-01  1.864E+00
   2    3    7     3     3    3.6066E-02  3.6066E-02   0.0000E+00  0.000E+00  0.000E+00  0.000E+00  1.06987E+03  0.000E+00  8.218E+00  5.547E-01  1.777E+00
   2    4    8     3     4    0.0000E+00  0.0000E+00   0.0000E+00  0.000E+00  0.000E+00  0.000E+00  1.06545E+03  0.000E+00  7.455E+00  6.709E-01  1.000E+00
   2    5    8     3     5    0.0000E+00  0.0000E+00   0.0000E+00  0.000E+00  0.000E+00  0.000E+00  1.06245E+03  0.000E+00  6.655E+00  4.991E-01  1.000E+00
   2    6    8     3     6    0.0000E+00  0.0000E+00   0.0000E+00  0.000E+00  0.000E+00  0.000E+00  1.06055E+03  0.000E+00  6.145E+00  1.844E-01  1.000E+00
   2    5   10     4     1    1.0000E+01  9.0525E-01   9.0947E+00  0.000E+00  0.000E+00  0.000E+00  1.07835E+03  6.210E-01  1.000E+01  2.500E-01  1.207E+00
   2    5    9     4     2    9.0947E+00  1.7835E+00   7.3113E+00  0.000E+00  0.000E+00  0.000E+00  1.07148E+03  5.670E-01  1.000E+01  5.000E-01  1.189E+00
   2    6    8     4     3    7.3113E+00  1.2257E+00   6.0855E+00  0.000E+00  0.000E+00  0.000E+00  1.06368E+03  5.021E-01  1.000E+01  3.500E-01  1.167E+00
   2    6    8     5     1    6.0855E+00  1.4716E+00   4.6139E+00  0.000E+00  0.000E+00  0.000E+00  1.05854E+03  5.396E-01  1.039E+01  4.158E-01  1.180E+00
   2    7    7     5     2    4.6139E+00  1.4897E+00   3.1242E+00  0.000E+00  0.000E+00  0.000E+00  1.05398E+03  4.817E-01  8.557E+00  4.279E-01  1.161E+00
   2    8    7     5     3    3.1242E+00  8.2855E-01   2.2957E+00  0.000E+00  0.000E+00  0.000E+00  1.04968E+03  4.253E-01  6.911E+00  2.419E-01  1.142E+00
   2    8    6     5     4    2.2957E+00  4.9455E-01   1.8011E+00  0.000E+00  0.000E+00  0.000E+00  1.04664E+03  3.856E-01  5.843E+00  1.461E-01  1.129E+00
   2    9    6     6     1    1.8011E+00  1.8011E+00   0.0000E+00  0.000E+00  0.000E+00  0.000E+00  1.04278E+03  5.669E-02  1.200E+01  6.000E-01  1.019E+00
   2   10    7     6     2    0.0000E+00  0.0000E+00   0.0000E+00  0.000E+00  0.000E+00  0.000E+00  1.03818E+03  0.000E+00  1.200E+01  6.000E-01  1.000E+00
   2   11    7     6     3    0.0000E+00  0.0000E+00   0.0000E+00  0.000E+00  0.000E+00  0.000E+00  1.03364E+03  0.000E+00  1.200E+01  6.000E-01  7.718E-01
   2   12    7     6     4    0.0000E+00  0.0000E+00   0.0000E+00  0.000E+00  0.000E+00  0.000E+00  1.02909E+03  0.000E+00  1.200E+01  6.000E-01  2.930E-02
   2   13    7     6     5    0.0000E+00 -7.8174E-01   7.8174E-01  0.000E+00  0.000E+00  0.000E+00  1.02601E+03  1.007E-01  1.200E+01  2.400E-01 -1.086E+00
   2   14    9     7     1    1.5000E+02  2.9286E+00   1.4707E+02  0.000E+00  0.000E+00  0.000E+00  1.03986E+03  2.283E+00  5.528E+01  5.591E+00  1.746E-01
   2   13    8     7     2    1.4707E+02  3.7331E+00   1.4334E+02  0.000E+00  0.000E+00  0.000E+00  1.03477E+03  2.266E+00  5.520E+01  6.140E+00  2.027E-01
   2   13    7     7     3    1.4334E+02  2.2402E+00   1.4110E+02  0.000E+00  0.000E+00  0.000E+00  1.02967E+03  2.250E+00  5.512E+01  5.574E+00  1.340E-01
   2   13    6     8     1    1.4188E+02  1.5798E-01   1.4173E+02  9.986E-03  0.000E+00  0.000E+00  1.02463E+03  2.758E+00  3.999E+01  4.075E+00  1.292E-02
   2   13    5     8     2    1.4173E+02 -2.9871E+00   1.4473E+02  9.986E-03  0.000E+00  0.000E+00  1.01839E+03  2.768E+00  4.014E+01  4.091E+00 -2.434E-01
   2   13    4     8     3    1.4473E+02 -5.7481E+00   1.5049E+02  9.986E-03  0.000E+00  0.000E+00  1.01217E+03  2.800E+00  4.060E+01  4.137E+00 -4.631E-01
   2   13    3     8     4    1.5049E+02 -6.1358E+00   1.5663E+02  9.986E-03  0.000E+00  0.000E+00  1.00597E+03  2.842E+00  4.121E+01  4.199E+00 -4.871E-01
   2   13    2     8     5    1.5663E+02 -3.5747E+00   1.6022E+02  9.986E-03  0.000E+00  0.000E+00  9.99750E+02  2.875E+00  4.169E+01  4.248E+00 -2.805E-01
   2   13    1     8     6    1.6022E+02 -2.2685E+00   1.6249E+02  5.992E-03  0.000E+00  0.000E+00  9.94770E+02  2.895E+00  4.198E+01  2.567E+00 -2.946E-01
   2    4    5     9     1    0.0000E+00  0.0000E+00   0.0000E+00  0.000E+00  0.000E+00  0.000E+00  1.06000E+03  0.000E+00  2.000E+01  2.000E-03  5.042E-01
   2    4    5    10     1    0.0000E+00  0.0000E+00   0.0000E+00  0.000E+00  0.000E+00  0.000E+00  1.08000E+03  0.000E+00  2.000E+01  2.000E-03  1.000E+00





     0  LAKE CELLS ARE DRY.

 PERIOD    12     TIME STEP     5     TIME STEP LENGTH  1.7520E+05
 PERIOD TIME  8.7600E+05     TOTAL SIMULATION TIME  2.9784E+07


                 HYDROLOGIC BUDGET SUMMARIES FOR SIMULATED LAKES
     (ALL FLUID FLUXES ARE VOLUMES ADDED TO THE LAKE DURING PRESENT TIME STEP)
     ----------------------------------------------------------------------------------------
 LAKE    STAGE         VOLUME     VOL. CHANGE      PRECIP     EVAPORATION    SPECIFIED RUNOFF     COMPUTED RUNOFF    TOTAL RUNOFF
   1  1.074500E+03  2.255014E-01 -2.490367E-02  0.000000E+00  2.489739E-02   0.000000E+00          0.000000E+00      0.000000E+00

            GROUND WATER            SURFACE WATER        WATER          UZF INFIL.
 LAKE    INFLOW     OUTFLOW      INFLOW     OUTFLOW       USE        FROM LAKE
   1  0.0000E+00  0.0000E+00  0.0000E+00  0.0000E+00  0.0000E+00       6.2730E-06

      CONNECTED LAKE   TIME-STEP         STAGE-CHANGE          PERCENT
 LAKE    INFLUX      SURFACE AREA   TIME STEP  CUMULATIVE    DISCREPANCY
   1   0.0000E+00     3.5527E+00   1.3473E-06  1.3473E-06       0.000
 --------------------------------------------------------------------------------



            CUMULATIVE HYDROLOGIC BUDGET SUMMARIES FOR SIMULATED LAKES
     (ALL FLUID FLUXES ARE SUMS OF VOLUMES ADDED TO THE LAKE SINCE INITIAL TIME)
     ---------------------------------------------------------------------------
 LAKE       PRECIP       EVAP     SPECIFIED RUNOFF   COMPUTED RUNOFF   TOTAL RUNOFF
   1     0.0000E+00  1.6033E+06       0.0000E+00       0.0000E+00       0.0000E+00

            GROUND WATER            SURFACE WATER       UZF INFIL.
 LAKE    INFLOW     OUTFLOW      INFLOW     OUTFLOW     FROM LAKE
   1  0.0000E+00  0.0000E+00  1.9325E+08  4.8785E+07    1.4286E+08

         WATER    CONNECTED LAKE   CHANGE       PERCENT
 LAKE     USE         INFLUX       IN VOL.    DISCREPANCY
   1   0.0000E+00   0.0000E+00   2.2550E-01     -0.000
 --------------------------------------------------------------------------------

 UBDSV3 SAVING "           GW ET" ON UNIT  61 AT TIME STEP 5, STRESS PERIOD 12
 UBDSV3 SAVING "    UZF RECHARGE" ON UNIT  61 AT TIME STEP 5, STRESS PERIOD 12
 UBDSV3 SAVING " SURFACE LEAKAGE" ON UNIT  61 AT TIME STEP 5, STRESS PERIOD 12


UNSATURATED ZONE PACKAGE VOLUMETRIC BUDGET FOR  TIME STEP     5 STRESS PERIOD   12
  ------------------------------------------------------------------------------



     CUMULATIVE VOLUMES      L**3       RATES FOR THIS TIME STEP      L**3/T
     ------------------                 ------------------------

           IN:                                      IN:
           ---                                      ---
        INFILTRATION =  1637189526.0834          INFILTRATION =           8.4468

          OUT:                                     OUT:
          ----                                     ----
              UZF ET =  1557590200.3185                UZF ET =           8.4449
        UZF RECHARGE =   728506769.8221          UZF RECHARGE =           3.4560

            IN - OUT =  -648907444.0571              IN - OUT =          -3.4541

          STORAGE:                                 STORAGE:
          --------                                 --------
      STORAGE CHANGE =  -648136264.7851        STORAGE CHANGE =          -3.4596

 PERCENT DISCREPANCY IS DIFFERENCE BETWEEN IN-OUT MINUS CHANGE IN STORAGE
 DIVIDED BY THE AVERAGE OF IN AND OUT TIMES 100

 PERCENT DISCREPANCY =          -0.01     PERCENT DISCREPANCY =           0.05






1
  VOLUMETRIC BUDGET FOR ENTIRE MODEL AT END OF TIME STEP    5, STRESS PERIOD  12
  ------------------------------------------------------------------------------

     CUMULATIVE VOLUMES      L**3       RATES FOR THIS TIME STEP      L**3/T
     ------------------                 ------------------------

           IN:                                      IN:
           ---                                      ---
             STORAGE     =   331799520.0000               STORAGE     =          26.2245
       CONSTANT HEAD     =           0.0000         CONSTANT HEAD     =           0.0000
               WELLS     =           0.0000                 WELLS     =           0.0000
     HEAD DEP BOUNDS     =     6390766.5000       HEAD DEP BOUNDS     =           0.2151
      STREAM LEAKAGE     =  2126039680.0000        STREAM LEAKAGE     =          30.0599
       LAKE  SEEPAGE     =           0.0000         LAKE  SEEPAGE     =           0.0000
        UZF RECHARGE     =   728506560.0000          UZF RECHARGE     =           3.4560
               GW ET     =           0.0000                 GW ET     =           0.0000
     SURFACE LEAKAGE     =           0.0000       SURFACE LEAKAGE     =           0.0000

                TOTAL IN =  3192736512.0000                  TOTAL IN =          59.9554

          OUT:                                     OUT:
          ----                                     ----
             STORAGE     =  1690303104.0000               STORAGE     =          19.5888
       CONSTANT HEAD     =           0.0000         CONSTANT HEAD     =           0.0000
               WELLS     =   394200000.0000                 WELLS     =           0.0000
     HEAD DEP BOUNDS     =     9043358.0000       HEAD DEP BOUNDS     =           0.2908
      STREAM LEAKAGE     =   553423360.0000        STREAM LEAKAGE     =          21.4960
       LAKE  SEEPAGE     =           0.0000         LAKE  SEEPAGE     =           0.0000
        UZF RECHARGE     =           0.0000          UZF RECHARGE     =           0.0000
               GW ET     =   454507488.0000                 GW ET     =          18.5251
     SURFACE LEAKAGE     =    91227456.0000       SURFACE LEAKAGE     =       5.2711E-02

               TOTAL OUT =  3192704768.0000                 TOTAL OUT =          59.9535

                IN - OUT =       31744.0000                  IN - OUT =       1.9951E-03

     PERCENT DISCREPANCY =           0.00         PERCENT DISCREPANCY =           0.00






         TIME SUMMARY AT END OF TIME STEP    5 IN STRESS PERIOD   12
                    SECONDS     MINUTES      HOURS       DAYS        YEARS
                    -----------------------------------------------------------
   TIME STEP LENGTH 1.75200E+05  2920.0      48.667      2.0278     5.55175E-03
 STRESS PERIOD TIME 8.76000E+05  14600.      243.33      10.139     2.77588E-02
         TOTAL TIME 2.97840E+07 4.96400E+05  8273.3      344.72     0.94380    
1
 
 SOLVING FOR HEAD 
                                                   Max.-Head-Change                         Max.-Flux-Residual
  Residual-Control   Outer-Iter.   Inner-Iter.     Column Row Layer    Maximum-Head-Change  Column Row Layer    Maximum-Flux-Residual          L2-NORM 
          0                 1           2             7    3     2      -0.1424326435E+00       3    3    2        -0.2713555724E+01      0.7325673301E+01
          0                 2           2             8    4     2       0.1143071929E-01       3    3    2         0.2655560464E+00      0.6479710581E+00
          0                 3           1             8    4     2      -0.6607492013E-03       3    3    2        -0.1538742748E-01      0.3558264220E-01

    ------------------------------------------------
       NWT REQUIRED            3 OUTER ITERATIONS 
       AND A TOTAL OF          5 INNER ITERATIONS.
    ------------------------------------------------

 NO OUTPUT CONTROL FOR STRESS PERIOD   12   TIME STEP    6
 
 SOLVING FOR HEAD 
                                                   Max.-Head-Change                         Max.-Flux-Residual
  Residual-Control   Outer-Iter.   Inner-Iter.     Column Row Layer    Maximum-Head-Change  Column Row Layer    Maximum-Flux-Residual          L2-NORM 
          0                 1           2             7    3     2      -0.1387357294E+00       3    3    2        -0.2633965454E+01      0.7048898930E+01
          0                 2           2             7    3     2       0.1302643200E-01       3    3    2         0.2578085642E+00      0.6301777505E+00
          0                 3           1             7    3     2      -0.7502195773E-03       3    3    2        -0.1494254361E-01      0.3551339259E-01

    ------------------------------------------------
       NWT REQUIRED            3 OUTER ITERATIONS 
       AND A TOTAL OF          5 INNER ITERATIONS.
    ------------------------------------------------

 NO OUTPUT CONTROL FOR STRESS PERIOD   12   TIME STEP    7
 
 SOLVING FOR HEAD 
                                                   Max.-Head-Change                         Max.-Flux-Residual
  Residual-Control   Outer-Iter.   Inner-Iter.     Column Row Layer    Maximum-Head-Change  Column Row Layer    Maximum-Flux-Residual          L2-NORM 
          0                 1           2             7    3     2      -0.1334948011E+00       3    3    2        -0.2576578919E+01      0.6816661457E+01
          0                 2           2             7    3     2       0.1282541082E-01       3    3    2         0.2522212411E+00      0.6019690966E+00
          0                 3           1             7    3     2      -0.7388539938E-03       3    3    2        -0.1462158958E-01      0.3312771393E-01

    ------------------------------------------------
       NWT REQUIRED            3 OUTER ITERATIONS 
       AND A TOTAL OF          5 INNER ITERATIONS.
    ------------------------------------------------

 NO OUTPUT CONTROL FOR STRESS PERIOD   12   TIME STEP    8
 
 SOLVING FOR HEAD 
                                                   Max.-Head-Change                         Max.-Flux-Residual
  Residual-Control   Outer-Iter.   Inner-Iter.     Column Row Layer    Maximum-Head-Change  Column Row Layer    Maximum-Flux-Residual          L2-NORM 
          0                 1           2             6    3     2      -0.1663418610E+00       3    3    2        -0.2799042732E+01      0.7251962791E+01
          0                 2           2             6    3     2       0.1376891512E-01       3    3    2         0.2743167553E+00      0.6393107604E+00
          0                 3           1             7    3     2      -0.7183133032E-03       3    3    2        -0.1593134041E-01      0.3478121642E-01

    ------------------------------------------------
       NWT REQUIRED            3 OUTER ITERATIONS 
       AND A TOTAL OF          5 INNER ITERATIONS.
    ------------------------------------------------

 NO OUTPUT CONTROL FOR STRESS PERIOD   12   TIME STEP    9
 
 SOLVING FOR HEAD 
                                                   Max.-Head-Change                         Max.-Flux-Residual
  Residual-Control   Outer-Iter.   Inner-Iter.     Column Row Layer    Maximum-Head-Change  Column Row Layer    Maximum-Flux-Residual          L2-NORM 
          0                 1           2             6    3     2      -0.1616651426E+00       3    3    2        -0.2718088248E+01      0.7027283219E+01
          0                 2           2             6    3     2       0.1340175052E-01       3    3    2         0.2664090506E+00      0.6169295365E+00
          0                 3           1             7    3     2      -0.6988458412E-03       3    3    2        -0.1547437632E-01      0.3324709345E-01

    ------------------------------------------------
       NWT REQUIRED            3 OUTER ITERATIONS 
       AND A TOTAL OF          5 INNER ITERATIONS.
    ------------------------------------------------

 OUTPUT CONTROL FOR STRESS PERIOD   12   TIME STEP   10
    PRINT BUDGET
    SAVE BUDGET

  HEAD DEP BOUNDS   PERIOD   12   STEP    10
 BOUNDARY      1   LAYER   2   ROW    13   COL     1   RATE   -0.290258    
 BOUNDARY      2   LAYER   2   ROW    14   COL     9   RATE    0.215107    



 STREAM LISTING     PERIOD     12   STEP       10

 LAYER ROW COL. STREAM  RCH.  FLOW INTO     FLOW TO   FLOW OUT OF   OVRLND.     DIRECT     STREAM       STREAM     STREAM     STREAM   STREAMBED  STREAMBED
                SEG.NO.  NO.  STRM. RCH.    AQUIFER    STRM. RCH.    RUNOFF     PRECIP       ET          HEAD       DEPTH      WIDTH   CONDCTNC.   GRADIENT

   2    1    1     1     1    8.0000E+00  4.8593E-01   7.5141E+00  0.000E+00  0.000E+00  0.000E+00  1.09388E+03  8.276E-01  7.402E+00  3.331E-01  4.863E-01
   2    2    2     1     2    7.5141E+00  1.8015E+00   5.7125E+00  0.000E+00  0.000E+00  0.000E+00  1.08885E+03  7.892E-01  6.805E+00  4.764E-01  1.261E+00
   2    3    3     1     3    5.7125E+00  1.3348E+00   4.3777E+00  0.000E+00  0.000E+00  0.000E+00  1.08316E+03  7.399E-01  5.948E+00  3.569E-01  1.247E+00
   2    3    4     1     4    4.3777E+00  1.0710E+00   3.3068E+00  0.000E+00  0.000E+00  0.000E+00  1.07810E+03  6.903E-01  5.229E+00  2.902E-01  1.230E+00
   2    4    5     2     1    0.0000E+00  0.0000E+00   0.0000E+00  0.000E+00  0.000E+00  0.000E+00  1.07193E+03  0.000E+00  1.200E+01  7.800E-01  1.000E+00
   2    5    6     2     2    0.0000E+00  0.0000E+00   0.0000E+00  0.000E+00  0.000E+00  0.000E+00  1.06651E+03  0.000E+00  1.200E+01  6.000E-01  1.000E+00
   2    6    6     2     3    0.0000E+00  0.0000E+00   0.0000E+00  0.000E+00  0.000E+00  0.000E+00  1.06179E+03  0.000E+00  1.200E+01  6.000E-01  1.000E+00
   2    7    6     2     4    0.0000E+00  0.0000E+00   0.0000E+00  0.000E+00  0.000E+00  0.000E+00  1.05708E+03  0.000E+00  1.200E+01  6.000E-01  1.000E+00
   2    8    6     2     5    0.0000E+00  0.0000E+00   0.0000E+00  0.000E+00  0.000E+00  0.000E+00  1.05236E+03  0.000E+00  1.200E+01  6.000E-01  1.000E+00
   2    3    5     3     1    3.3068E+00  2.8252E+00   4.8160E-01  0.000E+00  0.000E+00  0.000E+00  1.07555E+03  1.909E+00  9.636E+00  7.227E-01  1.955E+00
   2    3    6     3     2    4.8160E-01  4.8160E-01   0.0000E+00  0.000E+00  0.000E+00  0.000E+00  1.07264E+03  0.000E+00  8.909E+00  6.682E-01  1.864E+00
   2    3    7     3     3    0.0000E+00  0.0000E+00   0.0000E+00  0.000E+00  0.000E+00  0.000E+00  1.06832E+03  0.000E+00  8.218E+00  5.547E-01  1.000E+00
   2    4    8     3     4    0.0000E+00  0.0000E+00   0.0000E+00  0.000E+00  0.000E+00  0.000E+00  1.06545E+03  0.000E+00  7.455E+00  6.709E-01  1.000E+00
   2    5    8     3     5    0.0000E+00  0.0000E+00   0.0000E+00  0.000E+00  0.000E+00  0.000E+00  1.06245E+03  0.000E+00  6.655E+00  4.991E-01  1.000E+00
   2    6    8     3     6    0.0000E+00  0.0000E+00   0.0000E+00  0.000E+00  0.000E+00  0.000E+00  1.06055E+03  0.000E+00  6.145E+00  1.844E-01  1.000E+00
   2    5   10     4     1    1.0000E+01  9.0525E-01   9.0947E+00  0.000E+00  0.000E+00  0.000E+00  1.07835E+03  6.210E-01  1.000E+01  2.500E-01  1.207E+00
   2    5    9     4     2    9.0947E+00  1.7835E+00   7.3113E+00  0.000E+00  0.000E+00  0.000E+00  1.07148E+03  5.670E-01  1.000E+01  5.000E-01  1.189E+00
   2    6    8     4     3    7.3113E+00  1.2257E+00   6.0855E+00  0.000E+00  0.000E+00  0.000E+00  1.06368E+03  5.021E-01  1.000E+01  3.500E-01  1.167E+00
   2    6    8     5     1    6.0855E+00  1.4716E+00   4.6139E+00  0.000E+00  0.000E+00  0.000E+00  1.05854E+03  5.396E-01  1.039E+01  4.158E-01  1.180E+00
   2    7    7     5     2    4.6139E+00  1.4897E+00   3.1242E+00  0.000E+00  0.000E+00  0.000E+00  1.05398E+03  4.817E-01  8.557E+00  4.279E-01  1.161E+00
   2    8    7     5     3    3.1242E+00  8.2855E-01   2.2957E+00  0.000E+00  0.000E+00  0.000E+00  1.04968E+03  4.253E-01  6.911E+00  2.419E-01  1.142E+00
   2    8    6     5     4    2.2957E+00  4.9455E-01   1.8011E+00  0.000E+00  0.000E+00  0.000E+00  1.04664E+03  3.856E-01  5.843E+00  1.461E-01  1.129E+00
   2    9    6     6     1    1.8011E+00  1.8011E+00   0.0000E+00  0.000E+00  0.000E+00  0.000E+00  1.04278E+03  5.669E-02  1.200E+01  6.000E-01  1.019E+00
   2   10    7     6     2    0.0000E+00  0.0000E+00   0.0000E+00  0.000E+00  0.000E+00  0.000E+00  1.03818E+03  0.000E+00  1.200E+01  6.000E-01  1.000E+00
   2   11    7     6     3    0.0000E+00  0.0000E+00   0.0000E+00  0.000E+00  0.000E+00  0.000E+00  1.03364E+03  0.000E+00  1.200E+01  6.000E-01  8.157E-01
   2   12    7     6     4    0.0000E+00  0.0000E+00   0.0000E+00  0.000E+00  0.000E+00  0.000E+00  1.02909E+03  0.000E+00  1.200E+01  6.000E-01  5.743E-02
   2   13    7     6     5    0.0000E+00 -7.7820E-01   7.7820E-01  0.000E+00  0.000E+00  0.000E+00  1.02601E+03  1.005E-01  1.200E+01  2.400E-01 -1.081E+00
   2   14    9     7     1    1.5000E+02  2.9345E+00   1.4707E+02  0.000E+00  0.000E+00  0.000E+00  1.03986E+03  2.283E+00  5.528E+01  5.591E+00  1.750E-01
   2   13    8     7     2    1.4707E+02  3.7524E+00   1.4331E+02  0.000E+00  0.000E+00  0.000E+00  1.03477E+03  2.266E+00  5.520E+01  6.140E+00  2.037E-01
   2   13    7     7     3    1.4331E+02  2.3219E+00   1.4099E+02  0.000E+00  0.000E+00  0.000E+00  1.02967E+03  2.249E+00  5.512E+01  5.574E+00  1.389E-01
   2   13    6     8     1    1.4177E+02  2.2264E-01   1.4156E+02  8.998E-03  0.000E+00  0.000E+00  1.02463E+03  2.757E+00  3.998E+01  4.074E+00  1.822E-02
   2   13    5     8     2    1.4156E+02 -2.9573E+00   1.4452E+02  8.998E-03  0.000E+00  0.000E+00  1.01839E+03  2.767E+00  4.012E+01  4.089E+00 -2.411E-01
   2   13    4     8     3    1.4452E+02 -5.7374E+00   1.5027E+02  8.998E-03  0.000E+00  0.000E+00  1.01217E+03  2.798E+00  4.058E+01  4.135E+00 -4.625E-01
   2   13    3     8     4    1.5027E+02 -6.1237E+00   1.5640E+02  8.998E-03  0.000E+00  0.000E+00  1.00597E+03  2.840E+00  4.118E+01  4.197E+00 -4.864E-01
   2   13    2     8     5    1.5640E+02 -3.5485E+00   1.5996E+02  8.998E-03  0.000E+00  0.000E+00  9.99748E+02  2.873E+00  4.167E+01  4.246E+00 -2.786E-01
   2   13    1     8     6    1.5996E+02 -2.2321E+00   1.6220E+02  5.399E-03  0.000E+00  0.000E+00  9.94768E+02  2.893E+00  4.195E+01  2.565E+00 -2.901E-01
   2    4    5     9     1    0.0000E+00  0.0000E+00   0.0000E+00  0.000E+00  0.000E+00  0.000E+00  1.06000E+03  0.000E+00  2.000E+01  2.000E-03  5.356E-01
   2    4    5    10     1    0.0000E+00  0.0000E+00   0.0000E+00  0.000E+00  0.000E+00  0.000E+00  1.08000E+03  0.000E+00  2.000E+01  2.000E-03  1.000E+00





     0  LAKE CELLS ARE DRY.

 PERIOD    12     TIME STEP    10     TIME STEP LENGTH  1.7520E+05
 PERIOD TIME  1.7520E+06     TOTAL SIMULATION TIME  3.0660E+07


                 HYDROLOGIC BUDGET SUMMARIES FOR SIMULATED LAKES
     (ALL FLUID FLUXES ARE VOLUMES ADDED TO THE LAKE DURING PRESENT TIME STEP)
     ----------------------------------------------------------------------------------------
 LAKE    STAGE         VOLUME     VOL. CHANGE      PRECIP     EVAPORATION    SPECIFIED RUNOFF     COMPUTED RUNOFF    TOTAL RUNOFF
   1  1.074500E+03  1.335650E-01 -1.474935E-02  0.000000E+00  1.474678E-02   0.000000E+00          0.000000E+00      0.000000E+00

            GROUND WATER            SURFACE WATER        WATER          UZF INFIL.
 LAKE    INFLOW     OUTFLOW      INFLOW     OUTFLOW       USE        FROM LAKE
   1  0.0000E+00  0.0000E+00  0.0000E+00  0.0000E+00  0.0000E+00       2.2007E-06

      CONNECTED LAKE   TIME-STEP         STAGE-CHANGE          PERCENT
 LAKE    INFLUX      SURFACE AREA   TIME STEP  CUMULATIVE    DISCREPANCY
   1   0.0000E+00     2.1043E+00   7.9803E-07  7.9803E-07       0.002
 --------------------------------------------------------------------------------



            CUMULATIVE HYDROLOGIC BUDGET SUMMARIES FOR SIMULATED LAKES
     (ALL FLUID FLUXES ARE SUMS OF VOLUMES ADDED TO THE LAKE SINCE INITIAL TIME)
     ---------------------------------------------------------------------------
 LAKE       PRECIP       EVAP     SPECIFIED RUNOFF   COMPUTED RUNOFF   TOTAL RUNOFF
   1     0.0000E+00  1.6033E+06       0.0000E+00       0.0000E+00       0.0000E+00

            GROUND WATER            SURFACE WATER       UZF INFIL.
 LAKE    INFLOW     OUTFLOW      INFLOW     OUTFLOW     FROM LAKE
   1  0.0000E+00  0.0000E+00  1.9325E+08  4.8785E+07    1.4286E+08

         WATER    CONNECTED LAKE   CHANGE       PERCENT
 LAKE     USE         INFLUX       IN VOL.    DISCREPANCY
   1   0.0000E+00   0.0000E+00   1.3356E-01     -0.000
 --------------------------------------------------------------------------------

 UBDSV3 SAVING "           GW ET" ON UNIT  61 AT TIME STEP 10, STRESS PERIOD 12
 UBDSV3 SAVING "    UZF RECHARGE" ON UNIT  61 AT TIME STEP 10, STRESS PERIOD 12
 UBDSV3 SAVING " SURFACE LEAKAGE" ON UNIT  61 AT TIME STEP 10, STRESS PERIOD 12


UNSATURATED ZONE PACKAGE VOLUMETRIC BUDGET FOR  TIME STEP    10 STRESS PERIOD   12
  ------------------------------------------------------------------------------



     CUMULATIVE VOLUMES      L**3       RATES FOR THIS TIME STEP      L**3/T
     ------------------                 ------------------------

           IN:                                      IN:
           ---                                      ---
        INFILTRATION =  1644589002.0981          INFILTRATION =           8.4470

          OUT:                                     OUT:
          ----                                     ----
              UZF ET =  1564894273.0762                UZF ET =           8.3384
        UZF RECHARGE =   731452551.6215          UZF RECHARGE =           3.2959

            IN - OUT =  -651757822.5995              IN - OUT =          -3.1873

          STORAGE:                                 STORAGE:
          --------                                 --------
      STORAGE CHANGE =  -650989401.8363        STORAGE CHANGE =          -3.1935

 PERCENT DISCREPANCY IS DIFFERENCE BETWEEN IN-OUT MINUS CHANGE IN STORAGE
 DIVIDED BY THE AVERAGE OF IN AND OUT TIMES 100

 PERCENT DISCREPANCY =          -0.01     PERCENT DISCREPANCY =           0.05






1
  VOLUMETRIC BUDGET FOR ENTIRE MODEL AT END OF TIME STEP   10, STRESS PERIOD  12
  ------------------------------------------------------------------------------

     CUMULATIVE VOLUMES      L**3       RATES FOR THIS TIME STEP      L**3/T
     ------------------                 ------------------------

           IN:                                      IN:
           ---                                      ---
             STORAGE     =   354017216.0000               STORAGE     =          25.8682
       CONSTANT HEAD     =           0.0000         CONSTANT HEAD     =           0.0000
               WELLS     =           0.0000                 WELLS     =           0.0000
     HEAD DEP BOUNDS     =     6579188.0000       HEAD DEP BOUNDS     =           0.2151
      STREAM LEAKAGE     =  2151386624.0000        STREAM LEAKAGE     =          27.2314
       LAKE  SEEPAGE     =           0.0000         LAKE  SEEPAGE     =           0.0000
        UZF RECHARGE     =   731452352.0000          UZF RECHARGE     =           3.2959
               GW ET     =           0.0000                 GW ET     =           0.0000
     SURFACE LEAKAGE     =           0.0000       SURFACE LEAKAGE     =           0.0000

                TOTAL IN =  3243435520.0000                  TOTAL IN =          56.6106

          OUT:                                     OUT:
          ----                                     ----
             STORAGE     =  1705837184.0000               STORAGE     =          16.6254
       CONSTANT HEAD     =           0.0000         CONSTANT HEAD     =           0.0000
               WELLS     =   394200000.0000                 WELLS     =           0.0000
     HEAD DEP BOUNDS     =     9297811.0000       HEAD DEP BOUNDS     =           0.2903
      STREAM LEAKAGE     =   572187776.0000        STREAM LEAKAGE     =          21.3773
       LAKE  SEEPAGE     =           0.0000         LAKE  SEEPAGE     =           0.0000
        UZF RECHARGE     =           0.0000          UZF RECHARGE     =           0.0000
               GW ET     =   470608064.0000                 GW ET     =          18.2677
     SURFACE LEAKAGE     =    91270632.0000       SURFACE LEAKAGE     =       4.7338E-02

               TOTAL OUT =  3243401472.0000                 TOTAL OUT =          56.6079

                IN - OUT =       34048.0000                  IN - OUT =       2.6855E-03

     PERCENT DISCREPANCY =           0.00         PERCENT DISCREPANCY =           0.00






         TIME SUMMARY AT END OF TIME STEP   10 IN STRESS PERIOD   12
                    SECONDS     MINUTES      HOURS       DAYS        YEARS
                    -----------------------------------------------------------
   TIME STEP LENGTH 1.75200E+05  2920.0      48.667      2.0278     5.55175E-03
 STRESS PERIOD TIME 1.75200E+06  29200.      486.67      20.278     5.55175E-02
         TOTAL TIME 3.06600E+07 5.11000E+05  8516.7      354.86     0.97156    
1
 
 SOLVING FOR HEAD 
                                                   Max.-Head-Change                         Max.-Flux-Residual
  Residual-Control   Outer-Iter.   Inner-Iter.     Column Row Layer    Maximum-Head-Change  Column Row Layer    Maximum-Flux-Residual          L2-NORM 
          0                 1           2             6    3     2      -0.1571997975E+00       3    3    2        -0.2641811198E+01      0.6823555115E+01
          0                 2           2             6    3     2       0.1442517988E-01       3    3    2         0.2623801736E+00      0.6001590702E+00
          0                 3           1             6    3     2      -0.7837296765E-03       3    3    2        -0.1561346294E-01      0.3338612988E-01

    ------------------------------------------------
       NWT REQUIRED            3 OUTER ITERATIONS 
       AND A TOTAL OF          5 INNER ITERATIONS.
    ------------------------------------------------

 NO OUTPUT CONTROL FOR STRESS PERIOD   12   TIME STEP   11
 
 SOLVING FOR HEAD 
                                                   Max.-Head-Change                         Max.-Flux-Residual
  Residual-Control   Outer-Iter.   Inner-Iter.     Column Row Layer    Maximum-Head-Change  Column Row Layer    Maximum-Flux-Residual          L2-NORM 
          0                 1           2             6    3     2      -0.1870130350E+00       3    3    2        -0.2809435104E+01      0.7202953972E+01
          0                 2           2             6    3     2       0.1800718455E-01       3    3    2         0.2798264371E+00      0.6562502161E+00
          0                 3           2             6    3     2      -0.1040471837E-02       3    3    2        -0.1668492239E-01      0.3720401290E-01
          0                 4           1             6    3     2       0.2162901931E-04       3    3    2         0.3550736724E-03      0.7838897892E-03

    ------------------------------------------------
       NWT REQUIRED            4 OUTER ITERATIONS 
       AND A TOTAL OF          7 INNER ITERATIONS.
    ------------------------------------------------

 NO OUTPUT CONTROL FOR STRESS PERIOD   12   TIME STEP   12
 
 SOLVING FOR HEAD 
                                                   Max.-Head-Change                         Max.-Flux-Residual
  Residual-Control   Outer-Iter.   Inner-Iter.     Column Row Layer    Maximum-Head-Change  Column Row Layer    Maximum-Flux-Residual          L2-NORM 
          0                 1           2             6    3     2      -0.1811080513E+00       3    3    2        -0.2873012118E+01      0.7401919257E+01
          0                 2           2             6    3     2       0.1743906405E-01       3    3    2         0.2860451656E+00      0.6814976211E+00
          0                 3           1             6    3     2      -0.1007675577E-02       3    3    2        -0.1704436451E-01      0.3887018735E-01
          0                 4           1             6    3     2       0.2094593348E-04       3    3    2         0.3613556160E-03      0.8177266730E-03

    ------------------------------------------------
       NWT REQUIRED            4 OUTER ITERATIONS 
       AND A TOTAL OF          6 INNER ITERATIONS.
    ------------------------------------------------

 NO OUTPUT CONTROL FOR STRESS PERIOD   12   TIME STEP   13
 
 SOLVING FOR HEAD 
                                                   Max.-Head-Change                         Max.-Flux-Residual
  Residual-Control   Outer-Iter.   Inner-Iter.     Column Row Layer    Maximum-Head-Change  Column Row Layer    Maximum-Flux-Residual          L2-NORM 
          0                 1           2             6    3     2      -0.1754409438E+00       3    3    2        -0.2790929379E+01      0.7220843079E+01
          0                 2           2             6    3     2       0.1689298646E-01       3    3    2         0.2778635865E+00      0.6658939165E+00
          0                 3           1             6    3     2      -0.9760964462E-03       3    3    2        -0.1655583666E-01      0.3799422925E-01

    ------------------------------------------------
       NWT REQUIRED            3 OUTER ITERATIONS 
       AND A TOTAL OF          5 INNER ITERATIONS.
    ------------------------------------------------

 NO OUTPUT CONTROL FOR STRESS PERIOD   12   TIME STEP   14
 
 SOLVING FOR HEAD 
                                                   Max.-Head-Change                         Max.-Flux-Residual
  Residual-Control   Outer-Iter.   Inner-Iter.     Column Row Layer    Maximum-Head-Change  Column Row Layer    Maximum-Flux-Residual          L2-NORM 
          0                 1           2             6    3     2      -0.1700023013E+00       3    3    2        -0.2715008447E+01      0.7053227164E+01
          0                 2           2             6    3     2       0.1636892710E-01       3    3    2         0.2702971984E+00      0.6509403128E+00
          0                 3           1             6    3     2      -0.9457914449E-03       3    3    2        -0.1610416147E-01      0.3716770268E-01

    ------------------------------------------------
       NWT REQUIRED            3 OUTER ITERATIONS 
       AND A TOTAL OF          5 INNER ITERATIONS.
    ------------------------------------------------

 OUTPUT CONTROL FOR STRESS PERIOD   12   TIME STEP   15
    PRINT BUDGET
    PRINT HEAD FOR ALL LAYERS
    SAVE HEAD FOR ALL LAYERS
    SAVE BUDGET

  HEAD DEP BOUNDS   PERIOD   12   STEP    15
 BOUNDARY      1   LAYER   2   ROW    13   COL     1   RATE   -0.289885    
 BOUNDARY      2   LAYER   2   ROW    14   COL     9   RATE    0.215131    



 STREAM LISTING     PERIOD     12   STEP       15

 LAYER ROW COL. STREAM  RCH.  FLOW INTO     FLOW TO   FLOW OUT OF   OVRLND.     DIRECT     STREAM       STREAM     STREAM     STREAM   STREAMBED  STREAMBED
                SEG.NO.  NO.  STRM. RCH.    AQUIFER    STRM. RCH.    RUNOFF     PRECIP       ET          HEAD       DEPTH      WIDTH   CONDCTNC.   GRADIENT

   2    1    1     1     1    4.4000E+00  3.7085E-01   4.0292E+00  0.000E+00  0.000E+00  0.000E+00  1.09376E+03  7.088E-01  5.440E+00  2.448E-01  5.050E-01
   2    2    2     1     2    4.0292E+00  1.2844E+00   2.7448E+00  0.000E+00  0.000E+00  0.000E+00  1.08872E+03  6.606E-01  5.012E+00  3.509E-01  1.220E+00
   2    3    3     1     3    2.7448E+00  9.4068E-01   1.8041E+00  0.000E+00  0.000E+00  0.000E+00  1.08299E+03  5.752E-01  4.385E+00  2.631E-01  1.192E+00
   2    3    4     1     4    1.8041E+00  7.4143E-01   1.0627E+00  0.000E+00  0.000E+00  0.000E+00  1.07788E+03  4.720E-01  3.848E+00  2.135E-01  1.157E+00
   2    4    5     2     1    0.0000E+00  0.0000E+00   0.0000E+00  0.000E+00  0.000E+00  0.000E+00  1.07193E+03  0.000E+00  1.200E+01  7.800E-01  1.000E+00
   2    5    6     2     2    0.0000E+00  0.0000E+00   0.0000E+00  0.000E+00  0.000E+00  0.000E+00  1.06651E+03  0.000E+00  1.200E+01  6.000E-01  1.000E+00
   2    6    6     2     3    0.0000E+00  0.0000E+00   0.0000E+00  0.000E+00  0.000E+00  0.000E+00  1.06179E+03  0.000E+00  1.200E+01  6.000E-01  1.000E+00
   2    7    6     2     4    0.0000E+00  0.0000E+00   0.0000E+00  0.000E+00  0.000E+00  0.000E+00  1.05708E+03  0.000E+00  1.200E+01  6.000E-01  1.000E+00
   2    8    6     2     5    0.0000E+00  0.0000E+00   0.0000E+00  0.000E+00  0.000E+00  0.000E+00  1.05236E+03  0.000E+00  1.200E+01  6.000E-01  1.000E+00
   2    3    5     3     1    1.0627E+00  1.0627E+00   0.0000E+00  0.000E+00  0.000E+00  0.000E+00  1.07555E+03  0.000E+00  9.636E+00  7.227E-01  1.955E+00
   2    3    6     3     2    0.0000E+00  0.0000E+00   0.0000E+00  0.000E+00  0.000E+00  0.000E+00  1.07091E+03  0.000E+00  8.909E+00  6.682E-01  1.000E+00
   2    3    7     3     3    0.0000E+00  0.0000E+00   0.0000E+00  0.000E+00  0.000E+00  0.000E+00  1.06832E+03  0.000E+00  8.218E+00  5.547E-01  1.000E+00
   2    4    8     3     4    0.0000E+00  0.0000E+00   0.0000E+00  0.000E+00  0.000E+00  0.000E+00  1.06545E+03  0.000E+00  7.455E+00  6.709E-01  1.000E+00
   2    5    8     3     5    0.0000E+00  0.0000E+00   0.0000E+00  0.000E+00  0.000E+00  0.000E+00  1.06245E+03  0.000E+00  6.655E+00  4.991E-01  1.000E+00
   2    6    8     3     6    0.0000E+00  0.0000E+00   0.0000E+00  0.000E+00  0.000E+00  0.000E+00  1.06055E+03  0.000E+00  6.145E+00  1.844E-01  1.000E+00
   2    5   10     4     1    1.0000E+01  9.0525E-01   9.0947E+00  0.000E+00  0.000E+00  0.000E+00  1.07835E+03  6.210E-01  1.000E+01  2.500E-01  1.207E+00
   2    5    9     4     2    9.0947E+00  1.7835E+00   7.3113E+00  0.000E+00  0.000E+00  0.000E+00  1.07148E+03  5.670E-01  1.000E+01  5.000E-01  1.189E+00
   2    6    8     4     3    7.3113E+00  1.2257E+00   6.0855E+00  0.000E+00  0.000E+00  0.000E+00  1.06368E+03  5.021E-01  1.000E+01  3.500E-01  1.167E+00
   2    6    8     5     1    6.0855E+00  1.4716E+00   4.6139E+00  0.000E+00  0.000E+00  0.000E+00  1.05854E+03  5.396E-01  1.039E+01  4.158E-01  1.180E+00
   2    7    7     5     2    4.6139E+00  1.4897E+00   3.1242E+00  0.000E+00  0.000E+00  0.000E+00  1.05398E+03  4.817E-01  8.557E+00  4.279E-01  1.161E+00
   2    8    7     5     3    3.1242E+00  8.2855E-01   2.2957E+00  0.000E+00  0.000E+00  0.000E+00  1.04968E+03  4.253E-01  6.911E+00  2.419E-01  1.142E+00
   2    8    6     5     4    2.2957E+00  4.9455E-01   1.8011E+00  0.000E+00  0.000E+00  0.000E+00  1.04664E+03  3.856E-01  5.843E+00  1.461E-01  1.129E+00
   2    9    6     6     1    1.8011E+00  1.8011E+00   0.0000E+00  0.000E+00  0.000E+00  0.000E+00  1.04278E+03  5.669E-02  1.200E+01  6.000E-01  1.019E+00
   2   10    7     6     2    0.0000E+00  0.0000E+00   0.0000E+00  0.000E+00  0.000E+00  0.000E+00  1.03818E+03  0.000E+00  1.200E+01  6.000E-01  1.000E+00
   2   11    7     6     3    0.0000E+00  0.0000E+00   0.0000E+00  0.000E+00  0.000E+00  0.000E+00  1.03364E+03  0.000E+00  1.200E+01  6.000E-01  8.512E-01
   2   12    7     6     4    0.0000E+00  0.0000E+00   0.0000E+00  0.000E+00  0.000E+00  0.000E+00  1.02909E+03  0.000E+00  1.200E+01  6.000E-01  8.175E-02
   2   13    7     6     5    0.0000E+00 -7.7554E-01   7.7554E-01  0.000E+00  0.000E+00  0.000E+00  1.02601E+03  1.003E-01  1.200E+01  2.400E-01 -1.077E+00
   2   14    9     7     1    1.5000E+02  2.9379E+00   1.4706E+02  0.000E+00  0.000E+00  0.000E+00  1.03986E+03  2.283E+00  5.528E+01  5.591E+00  1.752E-01
   2   13    8     7     2    1.4706E+02  3.7674E+00   1.4329E+02  0.000E+00  0.000E+00  0.000E+00  1.03477E+03  2.266E+00  5.520E+01  6.140E+00  2.045E-01
   2   13    7     7     3    1.4329E+02  2.3832E+00   1.4091E+02  0.000E+00  0.000E+00  0.000E+00  1.02967E+03  2.249E+00  5.512E+01  5.574E+00  1.425E-01
   2   13    6     8     1    1.4169E+02  2.7112E-01   1.4142E+02  8.446E-03  0.000E+00  0.000E+00  1.02463E+03  2.756E+00  3.997E+01  4.073E+00  2.219E-02
   2   13    5     8     2    1.4142E+02 -2.9357E+00   1.4437E+02  8.446E-03  0.000E+00  0.000E+00  1.01839E+03  2.766E+00  4.011E+01  4.087E+00 -2.394E-01
   2   13    4     8     3    1.4437E+02 -5.7317E+00   1.5011E+02  8.446E-03  0.000E+00  0.000E+00  1.01217E+03  2.797E+00  4.056E+01  4.133E+00 -4.622E-01
   2   13    3     8     4    1.5011E+02 -6.1162E+00   1.5623E+02  8.446E-03  0.000E+00  0.000E+00  1.00596E+03  2.839E+00  4.117E+01  4.195E+00 -4.860E-01
   2   13    2     8     5    1.5623E+02 -3.5338E+00   1.5978E+02  8.446E-03  0.000E+00  0.000E+00  9.99747E+02  2.872E+00  4.165E+01  4.244E+00 -2.775E-01
   2   13    1     8     6    1.5978E+02 -2.2093E+00   1.6199E+02  5.068E-03  0.000E+00  0.000E+00  9.94767E+02  2.892E+00  4.193E+01  2.564E+00 -2.872E-01
   2    4    5     9     1    0.0000E+00  0.0000E+00   0.0000E+00  0.000E+00  0.000E+00  0.000E+00  1.06000E+03  0.000E+00  2.000E+01  2.000E-03  5.742E-01
   2    4    5    10     1    0.0000E+00  0.0000E+00   0.0000E+00  0.000E+00  0.000E+00  0.000E+00  1.08000E+03  0.000E+00  2.000E+01  2.000E-03  1.000E+00





     0  LAKE CELLS ARE DRY.

 PERIOD    12     TIME STEP    15     TIME STEP LENGTH  1.7520E+05
 PERIOD TIME  2.6280E+06     TOTAL SIMULATION TIME  3.1536E+07


                 HYDROLOGIC BUDGET SUMMARIES FOR SIMULATED LAKES
     (ALL FLUID FLUXES ARE VOLUMES ADDED TO THE LAKE DURING PRESENT TIME STEP)
     ----------------------------------------------------------------------------------------
 LAKE    STAGE         VOLUME     VOL. CHANGE      PRECIP     EVAPORATION    SPECIFIED RUNOFF     COMPUTED RUNOFF    TOTAL RUNOFF
   1  1.074500E+03  7.911038E-02 -8.737400E-03  0.000000E+00  8.734503E-03   0.000000E+00          0.000000E+00      0.000000E+00

            GROUND WATER            SURFACE WATER        WATER          UZF INFIL.
 LAKE    INFLOW     OUTFLOW      INFLOW     OUTFLOW       USE        FROM LAKE
   1  0.0000E+00  0.0000E+00  0.0000E+00  0.0000E+00  0.0000E+00       7.7205E-07

      CONNECTED LAKE   TIME-STEP         STAGE-CHANGE          PERCENT
 LAKE    INFLUX      SURFACE AREA   TIME STEP  CUMULATIVE    DISCREPANCY
   1   0.0000E+00     1.2464E+00   4.7267E-07  4.7267E-07       0.024
 --------------------------------------------------------------------------------



            CUMULATIVE HYDROLOGIC BUDGET SUMMARIES FOR SIMULATED LAKES
     (ALL FLUID FLUXES ARE SUMS OF VOLUMES ADDED TO THE LAKE SINCE INITIAL TIME)
     ---------------------------------------------------------------------------
 LAKE       PRECIP       EVAP     SPECIFIED RUNOFF   COMPUTED RUNOFF   TOTAL RUNOFF
   1     0.0000E+00  1.6033E+06       0.0000E+00       0.0000E+00       0.0000E+00

            GROUND WATER            SURFACE WATER       UZF INFIL.
 LAKE    INFLOW     OUTFLOW      INFLOW     OUTFLOW     FROM LAKE
   1  0.0000E+00  0.0000E+00  1.9325E+08  4.8785E+07    1.4286E+08

         WATER    CONNECTED LAKE   CHANGE       PERCENT
 LAKE     USE         INFLUX       IN VOL.    DISCREPANCY
   1   0.0000E+00   0.0000E+00   7.9110E-02     -0.000
 --------------------------------------------------------------------------------

 UBDSV3 SAVING "           GW ET" ON UNIT  61 AT TIME STEP 15, STRESS PERIOD 12
 UBDSV3 SAVING "    UZF RECHARGE" ON UNIT  61 AT TIME STEP 15, STRESS PERIOD 12
 UBDSV3 SAVING " SURFACE LEAKAGE" ON UNIT  61 AT TIME STEP 15, STRESS PERIOD 12


UNSATURATED ZONE PACKAGE VOLUMETRIC BUDGET FOR  TIME STEP    15 STRESS PERIOD   12
  ------------------------------------------------------------------------------



     CUMULATIVE VOLUMES      L**3       RATES FOR THIS TIME STEP      L**3/T
     ------------------                 ------------------------

           IN:                                      IN:
           ---                                      ---
        INFILTRATION =  1651988588.2251          INFILTRATION =           8.4470

          OUT:                                     OUT:
          ----                                     ----
              UZF ET =  1572199057.8775                UZF ET =           8.3391
        UZF RECHARGE =   734219473.1150          UZF RECHARGE =           3.0247

            IN - OUT =  -654429942.7675              IN - OUT =          -2.9167

          STORAGE:                                 STORAGE:
          --------                                 --------
      STORAGE CHANGE =  -653661078.4922        STORAGE CHANGE =          -2.9167

 PERCENT DISCREPANCY IS DIFFERENCE BETWEEN IN-OUT MINUS CHANGE IN STORAGE
 DIVIDED BY THE AVERAGE OF IN AND OUT TIMES 100

 PERCENT DISCREPANCY =          -0.01     PERCENT DISCREPANCY =           0.00






1
              HEAD IN LAYER 1 AT END OF TIME STEP 15 IN STRESS PERIOD 12
  ---------------------------------------------------------------------------

           1       2       3       4       5       6       7       8       9      10
 ...................................................................................
   1  6999.00 6999.00 6999.00 6999.00 6999.00 6999.00 6999.00 6999.00 6999.00 6999.00
   2  6999.00 6999.00 6999.00 6999.00 6999.00 6999.00 6999.00 6999.00 6999.00 6999.00
   3  6999.00 6999.00 6999.00 6999.00 6999.00 6999.00 6999.00 6999.00 6999.00 6999.00
   4  6999.00 6999.00 6999.00 6999.00 1074.50 6999.00 6999.00 6999.00 6999.00 6999.00
   5  6999.00 6999.00 6999.00 6999.00 6999.00 6999.00 6999.00 6999.00 6999.00 6999.00
   6  6999.00 6999.00 6999.00 6999.00 6999.00 6999.00 6999.00 6999.00 6999.00 6999.00
   7  6999.00 6999.00 6999.00 6999.00 6999.00 6999.00 6999.00 6999.00 6999.00 6999.00
   8  6999.00 6999.00 6999.00 6999.00 6999.00 6999.00 6999.00 6999.00 6999.00 6999.00
   9  6999.00 6999.00 6999.00 6999.00 6999.00 6999.00 6999.00 6999.00 6999.00 6999.00
  10  6999.00 6999.00 6999.00 6999.00 6999.00 6999.00 6999.00 6999.00 6999.00 6999.00
  11  6999.00 6999.00 6999.00 6999.00 6999.00 6999.00 6999.00 6999.00 6999.00 6999.00
  12  6999.00 6999.00 6999.00 6999.00 6999.00 6999.00 6999.00 6999.00 6999.00 6999.00
  13  6999.00 6999.00 6999.00 6999.00 6999.00 6999.00 6999.00 6999.00 6999.00 6999.00
  14  6999.00 6999.00 6999.00 6999.00 6999.00 6999.00 6999.00 6999.00 6999.00 6999.00
  15  6999.00 6999.00 6999.00 6999.00 6999.00 6999.00 6999.00 6999.00 6999.00 6999.00
1
              HEAD IN LAYER 2 AT END OF TIME STEP 15 IN STRESS PERIOD 12
  ---------------------------------------------------------------------------

           1       2       3       4       5       6       7       8       9      10
 ...................................................................................
   1  1092.24 1089.23 6999.00 6999.00 6999.00 6999.00 6999.00 6999.00 6999.00 6999.00
   2  1088.83 1084.72 1079.75 6999.00 6999.00 1067.45 1066.77 1065.57 6999.00 6999.00
   3  6999.00 1075.46 1071.91 1067.45 1066.25 1064.94 1064.27 1063.76 6999.00 6999.00
   4  1062.32 1064.85 1064.35 1060.64 1058.28 1057.26 1057.71 1058.75 1058.20 6999.00
   5  1058.06 1056.75 1056.04 1054.52 1053.77 1053.38 1053.03 1053.75 1056.43 1058.16
   6  1053.85 1050.96 1049.74 1049.25 1049.22 1049.80 1050.53 1051.93 1053.25 1056.91
   7  1050.85 1045.76 1044.41 1044.36 1044.84 1045.95 1047.45 1049.00 1049.67 6999.00
   8  6999.00 1039.95 1039.42 1039.73 1040.40 1041.77 1043.22 1045.21 1045.46 6999.00
   9  6999.00 1033.86 1034.05 1034.82 1035.74 1037.43 1038.43 1039.39 1041.08 6999.00
  10  6999.00 1027.72 1028.50 1029.97 1031.27 1032.98 1034.09 1035.43 1037.68 1040.76
  11  6999.00 1020.15 1021.62 1024.97 1027.11 1029.37 1031.08 1032.93 1035.30 6999.00
  12  1003.15 1009.89 1014.29 1019.05 1022.76 1026.26 1028.85 1031.48 1034.90 6999.00
  13   995.63 1000.58 1007.42 1013.56 1019.11 1024.56 1029.24 1034.15 1036.73 6999.00
  14  6999.00 1007.11 1010.76 1015.71 1020.77 1025.61 1030.08 1035.17 1039.34 6999.00
  15  6999.00 6999.00 1018.81 1021.57 1025.08 1027.91 6999.00 6999.00 6999.00 6999.00

 HEAD WILL BE SAVED ON UNIT   58 AT END OF TIME STEP   15, STRESS PERIOD   12
1
  VOLUMETRIC BUDGET FOR ENTIRE MODEL AT END OF TIME STEP   15, STRESS PERIOD  12
  ------------------------------------------------------------------------------

     CUMULATIVE VOLUMES      L**3       RATES FOR THIS TIME STEP      L**3/T
     ------------------                 ------------------------

           IN:                                      IN:
           ---                                      ---
             STORAGE     =   377596768.0000               STORAGE     =          26.9871
       CONSTANT HEAD     =           0.0000         CONSTANT HEAD     =           0.0000
               WELLS     =           0.0000                 WELLS     =           0.0000
     HEAD DEP BOUNDS     =     6767635.0000       HEAD DEP BOUNDS     =           0.2151
      STREAM LEAKAGE     =  2173021440.0000        STREAM LEAKAGE     =          23.7596
       LAKE  SEEPAGE     =           0.0000         LAKE  SEEPAGE     =           0.0000
        UZF RECHARGE     =   734219264.0000          UZF RECHARGE     =           3.0247
               GW ET     =           0.0000                 GW ET     =           0.0000
     SURFACE LEAKAGE     =           0.0000       SURFACE LEAKAGE     =           0.0000

                TOTAL IN =  3291604992.0000                  TOTAL IN =          53.9866

          OUT:                                     OUT:
          ----                                     ----
             STORAGE     =  1719186432.0000               STORAGE     =          14.3924
       CONSTANT HEAD     =           0.0000         CONSTANT HEAD     =           0.0000
               WELLS     =   394200000.0000                 WELLS     =           0.0000
     HEAD DEP BOUNDS     =     9551870.0000       HEAD DEP BOUNDS     =           0.2899
      STREAM LEAKAGE     =   590872256.0000        STREAM LEAKAGE     =          21.3022
       LAKE  SEEPAGE     =           0.0000         LAKE  SEEPAGE     =           0.0000
        UZF RECHARGE     =           0.0000          UZF RECHARGE     =           0.0000
               GW ET     =   486448544.0000                 GW ET     =          17.9546
     SURFACE LEAKAGE     =    91310384.0000       SURFACE LEAKAGE     =       4.4351E-02

               TOTAL OUT =  3291569664.0000                 TOTAL OUT =          53.9835

                IN - OUT =       35328.0000                  IN - OUT =       3.0594E-03

     PERCENT DISCREPANCY =           0.00         PERCENT DISCREPANCY =           0.01






         TIME SUMMARY AT END OF TIME STEP   15 IN STRESS PERIOD   12
                    SECONDS     MINUTES      HOURS       DAYS        YEARS
                    -----------------------------------------------------------
   TIME STEP LENGTH 1.75200E+05  2920.0      48.667      2.0278     5.55175E-03
 STRESS PERIOD TIME 2.62800E+06  43800.      730.00      30.417     8.32763E-02
         TOTAL TIME 3.15360E+07 5.25600E+05  8760.0      365.00     0.99932    
1
 
 SOLVING FOR HEAD 
                                                   Max.-Head-Change                         Max.-Flux-Residual
  Residual-Control   Outer-Iter.   Inner-Iter.     Column Row Layer    Maximum-Head-Change  Column Row Layer    Maximum-Flux-Residual          L2-NORM 
          0                 1           2             5    3     2      -0.2295657866E+00       3    3    2        -0.3180203890E+01      0.7874290491E+01
          0                 2           2             5    3     2       0.2204811670E-01       4    3    2         0.3138794455E+00      0.7412331512E+00
          0                 3           1             5    3     2      -0.1270439529E-02       4    3    2        -0.1874018820E-01      0.4289151325E-01
          0                 4           1             5    3     2       0.2626176893E-04       5    3    2         0.4011995018E-03      0.9073354015E-03

    ------------------------------------------------
       NWT REQUIRED            4 OUTER ITERATIONS 
       AND A TOTAL OF          6 INNER ITERATIONS.
    ------------------------------------------------

 NO OUTPUT CONTROL FOR STRESS PERIOD   12   TIME STEP   16
 
 SOLVING FOR HEAD 
                                                   Max.-Head-Change                         Max.-Flux-Residual
  Residual-Control   Outer-Iter.   Inner-Iter.     Column Row Layer    Maximum-Head-Change  Column Row Layer    Maximum-Flux-Residual          L2-NORM 
          0                 1           2             5    3     2      -0.2111095412E+00       5    3    2        -0.2874424369E+01      0.7373293971E+01
          0                 2           2             5    3     2       0.2019614853E-01       5    3    2         0.2859173652E+00      0.6900908693E+00
          0                 3           1             5    3     2      -0.1156625289E-02       5    3    2        -0.1701618706E-01      0.3978591998E-01
          0                 4           1             5    3     2       0.2369247158E-04       5    3    2         0.3619739007E-03      0.8394579007E-03

    ------------------------------------------------
       NWT REQUIRED            4 OUTER ITERATIONS 
       AND A TOTAL OF          6 INNER ITERATIONS.
    ------------------------------------------------

 NO OUTPUT CONTROL FOR STRESS PERIOD   12   TIME STEP   17
 
 SOLVING FOR HEAD 
                                                   Max.-Head-Change                         Max.-Flux-Residual
  Residual-Control   Outer-Iter.   Inner-Iter.     Column Row Layer    Maximum-Head-Change  Column Row Layer    Maximum-Flux-Residual          L2-NORM 
          0                 1           2             5    3     2      -0.2022367004E+00       4    3    2        -0.2784529223E+01      0.7216027055E+01
          0                 2           2             5    3     2       0.1934183507E-01       4    3    2         0.2748282488E+00      0.6756965139E+00
          0                 3           1             5    3     2      -0.1107428712E-02       3    3    2        -0.1628633571E-01      0.3896296199E-01
          0                 4           1             5    3     2       0.2268116406E-04       5    3    2         0.3463220291E-03      0.8220298053E-03

    ------------------------------------------------
       NWT REQUIRED            4 OUTER ITERATIONS 
       AND A TOTAL OF          6 INNER ITERATIONS.
    ------------------------------------------------

 NO OUTPUT CONTROL FOR STRESS PERIOD   12   TIME STEP   18
 
 SOLVING FOR HEAD 
                                                   Max.-Head-Change                         Max.-Flux-Residual
  Residual-Control   Outer-Iter.   Inner-Iter.     Column Row Layer    Maximum-Head-Change  Column Row Layer    Maximum-Flux-Residual          L2-NORM 
          0                 1           2             5    3     2      -0.1939202139E+00       4    3    2        -0.2742701552E+01      0.7069131942E+01
          0                 2           2             5    3     2       0.1854095452E-01       4    3    2         0.2707217529E+00      0.6620168651E+00
          0                 3           1             5    3     2      -0.1061170879E-02       3    3    2        -0.1592839653E-01      0.3818802688E-01
          0                 4           1             5    3     2       0.2173019617E-04       3    3    2         0.3367898903E-03      0.8057544434E-03

    ------------------------------------------------
       NWT REQUIRED            4 OUTER ITERATIONS 
       AND A TOTAL OF          6 INNER ITERATIONS.
    ------------------------------------------------

 NO OUTPUT CONTROL FOR STRESS PERIOD   12   TIME STEP   19
 
 SOLVING FOR HEAD 
                                                   Max.-Head-Change                         Max.-Flux-Residual
  Residual-Control   Outer-Iter.   Inner-Iter.     Column Row Layer    Maximum-Head-Change  Column Row Layer    Maximum-Flux-Residual          L2-NORM 
          0                 1           2             5    3     2      -0.1861175463E+00       4    3    2        -0.2700411309E+01      0.6931314432E+01
          0                 2           2             5    3     2       0.1778999616E-01       4    3    2         0.2665624449E+00      0.6492241392E+00
          0                 3           1             5    3     2      -0.1017813642E-02       4    3    2        -0.1566000350E-01      0.3748297878E-01
          0                 4           1             5    3     2       0.2071187802E-04       3    3    2         0.3297355470E-03      0.7911249344E-03

    ------------------------------------------------
       NWT REQUIRED            4 OUTER ITERATIONS 
       AND A TOTAL OF          6 INNER ITERATIONS.
    ------------------------------------------------

 NO OUTPUT CONTROL FOR STRESS PERIOD   12   TIME STEP   20
 
 SOLVING FOR HEAD 
                                                   Max.-Head-Change                         Max.-Flux-Residual
  Residual-Control   Outer-Iter.   Inner-Iter.     Column Row Layer    Maximum-Head-Change  Column Row Layer    Maximum-Flux-Residual          L2-NORM 
          0                 1           2             5    3     2      -0.1787889008E+00       4    3    2        -0.2657937829E+01      0.6800862783E+01
          0                 2           2             5    3     2       0.1708478860E-01       4    3    2         0.2623826067E+00      0.6371503844E+00
          0                 3           1             5    3     2      -0.9770880457E-03       4    3    2        -0.1541649209E-01      0.3680101745E-01

    ------------------------------------------------
       NWT REQUIRED            3 OUTER ITERATIONS 
       AND A TOTAL OF          5 INNER ITERATIONS.
    ------------------------------------------------

 NO OUTPUT CONTROL FOR STRESS PERIOD   12   TIME STEP   21
 
 SOLVING FOR HEAD 
                                                   Max.-Head-Change                         Max.-Flux-Residual
  Residual-Control   Outer-Iter.   Inner-Iter.     Column Row Layer    Maximum-Head-Change  Column Row Layer    Maximum-Flux-Residual          L2-NORM 
          0                 1           2             5    3     2      -0.1718977570E+00       4    3    2        -0.2615496372E+01      0.6678125615E+01
          0                 2           2             5    3     2       0.1642164134E-01       4    3    2         0.2582060492E+00      0.6257700111E+00
          0                 3           1             5    3     2      -0.9388044534E-03       4    3    2        -0.1517312799E-01      0.3615881807E-01

    ------------------------------------------------
       NWT REQUIRED            3 OUTER ITERATIONS 
       AND A TOTAL OF          5 INNER ITERATIONS.
    ------------------------------------------------

 NO OUTPUT CONTROL FOR STRESS PERIOD   12   TIME STEP   22
 
 SOLVING FOR HEAD 
                                                   Max.-Head-Change                         Max.-Flux-Residual
  Residual-Control   Outer-Iter.   Inner-Iter.     Column Row Layer    Maximum-Head-Change  Column Row Layer    Maximum-Flux-Residual          L2-NORM 
          0                 1           2             5    3     2      -0.1654123931E+00       4    3    2        -0.2573278400E+01      0.6561520386E+01
          0                 2           2             5    3     2       0.1579776348E-01       4    3    2         0.2540477108E+00      0.6147337559E+00
          0                 3           1             5    3     2      -0.9027846248E-03       4    3    2        -0.1493054472E-01      0.3553366872E-01

    ------------------------------------------------
       NWT REQUIRED            3 OUTER ITERATIONS 
       AND A TOTAL OF          5 INNER ITERATIONS.
    ------------------------------------------------

 NO OUTPUT CONTROL FOR STRESS PERIOD   12   TIME STEP   23
 
 SOLVING FOR HEAD 
                                                   Max.-Head-Change                         Max.-Flux-Residual
  Residual-Control   Outer-Iter.   Inner-Iter.     Column Row Layer    Maximum-Head-Change  Column Row Layer    Maximum-Flux-Residual          L2-NORM 
          0                 1           2             5    3     2      -0.1593032820E+00       4    3    2        -0.2531446459E+01      0.6450635241E+01
          0                 2           2             5    3     2       0.1521027507E-01       4    3    2         0.2499254309E+00      0.6052177892E+00
          0                 3           1             5    3     2      -0.8690565225E-03       4    3    2        -0.1468708597E-01      0.3499484065E-01

    ------------------------------------------------
       NWT REQUIRED            3 OUTER ITERATIONS 
       AND A TOTAL OF          5 INNER ITERATIONS.
    ------------------------------------------------

 NO OUTPUT CONTROL FOR STRESS PERIOD   12   TIME STEP   24
 
 SOLVING FOR HEAD 
                                                   Max.-Head-Change                         Max.-Flux-Residual
  Residual-Control   Outer-Iter.   Inner-Iter.     Column Row Layer    Maximum-Head-Change  Column Row Layer    Maximum-Flux-Residual          L2-NORM 
          0                 1           2             5    3     2      -0.1535454368E+00       4    3    2        -0.2490101981E+01      0.6345646786E+01
          0                 2           2             5    3     2       0.1465817253E-01       4    3    2         0.2458511476E+00      0.5959286157E+00
          0                 3           1             5    3     2      -0.8370725608E-03       4    3    2        -0.1444956912E-01      0.3446002859E-01

    ------------------------------------------------
       NWT REQUIRED            3 OUTER ITERATIONS 
       AND A TOTAL OF          5 INNER ITERATIONS.
    ------------------------------------------------

 NO OUTPUT CONTROL FOR STRESS PERIOD   12   TIME STEP   25
 
 SOLVING FOR HEAD 
                                                   Max.-Head-Change                         Max.-Flux-Residual
  Residual-Control   Outer-Iter.   Inner-Iter.     Column Row Layer    Maximum-Head-Change  Column Row Layer    Maximum-Flux-Residual          L2-NORM 
          0                 1           2             5    3     2      -0.1481196245E+00       4    3    2        -0.2449355741E+01      0.6248011846E+01
          0                 2           2             5    3     2       0.1413742837E-01       4    3    2         0.2418305658E+00      0.5869044678E+00
          0                 3           1             5    3     2      -0.8071275706E-03       4    3    2        -0.1421387125E-01      0.3394172426E-01

    ------------------------------------------------
       NWT REQUIRED            3 OUTER ITERATIONS 
       AND A TOTAL OF          5 INNER ITERATIONS.
    ------------------------------------------------

 NO OUTPUT CONTROL FOR STRESS PERIOD   12   TIME STEP   26
 
 SOLVING FOR HEAD 
                                                   Max.-Head-Change                         Max.-Flux-Residual
  Residual-Control   Outer-Iter.   Inner-Iter.     Column Row Layer    Maximum-Head-Change  Column Row Layer    Maximum-Flux-Residual          L2-NORM 
          0                 1           2             5    3     2      -0.1429948460E+00       4    3    2        -0.2409292965E+01      0.6153676257E+01
          0                 2           2             5    3     2       0.1364495779E-01       4    3    2         0.2378777686E+00      0.5784414182E+00
          0                 3           1             5    3     2      -0.7789014325E-03       4    3    2        -0.1398001911E-01      0.3346702678E-01

    ------------------------------------------------
       NWT REQUIRED            3 OUTER ITERATIONS 
       AND A TOTAL OF          5 INNER ITERATIONS.
    ------------------------------------------------

 NO OUTPUT CONTROL FOR STRESS PERIOD   12   TIME STEP   27
 
 SOLVING FOR HEAD 
                                                   Max.-Head-Change                         Max.-Flux-Residual
  Residual-Control   Outer-Iter.   Inner-Iter.     Column Row Layer    Maximum-Head-Change  Column Row Layer    Maximum-Flux-Residual          L2-NORM 
          0                 1           2             5    3     2      -0.1381487658E+00       4    3    2        -0.2369975190E+01      0.6063327819E+01
          0                 2           2             5    3     2       0.1317911397E-01       4    3    2         0.2340012241E+00      0.5702516193E+00
          0                 3           1             5    3     2      -0.7519389195E-03       4    3    2        -0.1375442073E-01      0.3300497501E-01

    ------------------------------------------------
       NWT REQUIRED            3 OUTER ITERATIONS 
       AND A TOTAL OF          5 INNER ITERATIONS.
    ------------------------------------------------

 NO OUTPUT CONTROL FOR STRESS PERIOD   12   TIME STEP   28
 
 SOLVING FOR HEAD 
                                                   Max.-Head-Change                         Max.-Flux-Residual
  Residual-Control   Outer-Iter.   Inner-Iter.     Column Row Layer    Maximum-Head-Change  Column Row Layer    Maximum-Flux-Residual          L2-NORM 
          0                 1           2             5    3     2      -0.1335626530E+00       4    3    2        -0.2331438369E+01      0.5976687252E+01
          0                 2           2             5    3     2       0.1273861039E-01       4    3    2         0.2301970239E+00      0.5623374154E+00
          0                 3           1             5    3     2      -0.7267130984E-03       4    3    2        -0.1352907223E-01      0.3255780805E-01

    ------------------------------------------------
       NWT REQUIRED            3 OUTER ITERATIONS 
       AND A TOTAL OF          5 INNER ITERATIONS.
    ------------------------------------------------

 NO OUTPUT CONTROL FOR STRESS PERIOD   12   TIME STEP   29
 
 SOLVING FOR HEAD 
                                                   Max.-Head-Change                         Max.-Flux-Residual
  Residual-Control   Outer-Iter.   Inner-Iter.     Column Row Layer    Maximum-Head-Change  Column Row Layer    Maximum-Flux-Residual          L2-NORM 
          0                 1           2             5    3     2      -0.1292201509E+00       4    3    2        -0.2293709783E+01      0.5893182982E+01
          0                 2           2             5    3     2       0.1232157441E-01       4    3    2         0.2264717789E+00      0.5547755731E+00
          0                 3           1             5    3     2      -0.7027087513E-03       4    3    2        -0.1331030162E-01      0.3213005947E-01

    ------------------------------------------------
       NWT REQUIRED            3 OUTER ITERATIONS 
       AND A TOTAL OF          5 INNER ITERATIONS.
    ------------------------------------------------

 NO OUTPUT CONTROL FOR STRESS PERIOD   12   TIME STEP   30
 
 SOLVING FOR HEAD 
                                                   Max.-Head-Change                         Max.-Flux-Residual
  Residual-Control   Outer-Iter.   Inner-Iter.     Column Row Layer    Maximum-Head-Change  Column Row Layer    Maximum-Flux-Residual          L2-NORM 
          0                 1           2             5    3     2      -0.1251046953E+00       4    3    2        -0.2256816024E+01      0.5813331086E+01
          0                 2           2             5    3     2       0.1192626979E-01       4    3    2         0.2228300953E+00      0.5474891776E+00
          0                 3           1             5    3     2      -0.6799600813E-03       4    3    2        -0.1309642913E-01      0.3171796918E-01

    ------------------------------------------------
       NWT REQUIRED            3 OUTER ITERATIONS 
       AND A TOTAL OF          5 INNER ITERATIONS.
    ------------------------------------------------

 NO OUTPUT CONTROL FOR STRESS PERIOD   12   TIME STEP   31
 
 SOLVING FOR HEAD 
                                                   Max.-Head-Change                         Max.-Flux-Residual
  Residual-Control   Outer-Iter.   Inner-Iter.     Column Row Layer    Maximum-Head-Change  Column Row Layer    Maximum-Flux-Residual          L2-NORM 
          0                 1           2             5    3     2      -0.1212008231E+00       4    3    2        -0.2220758214E+01      0.5736965896E+01
          0                 2           2             5    3     2       0.1155135129E-01       4    3    2         0.2192705209E+00      0.5404500223E+00
          0                 3           1             5    3     2      -0.6583859785E-03       4    3    2        -0.1288721735E-01      0.3132023913E-01

    ------------------------------------------------
       NWT REQUIRED            3 OUTER ITERATIONS 
       AND A TOTAL OF          5 INNER ITERATIONS.
    ------------------------------------------------

 NO OUTPUT CONTROL FOR STRESS PERIOD   12   TIME STEP   32
 
 SOLVING FOR HEAD 
                                                   Max.-Head-Change                         Max.-Flux-Residual
  Residual-Control   Outer-Iter.   Inner-Iter.     Column Row Layer    Maximum-Head-Change  Column Row Layer    Maximum-Flux-Residual          L2-NORM 
          0                 1           2             5    3     2      -0.1174961020E+00       4    3    2        -0.2185553547E+01      0.5663586140E+01
          0                 2           2             5    3     2       0.1119563155E-01       4    3    2         0.2157943266E+00      0.5337181292E+00
          0                 3           1             5    3     2      -0.6378047902E-03       4    3    2        -0.1268483159E-01      0.3095205509E-01

    ------------------------------------------------
       NWT REQUIRED            3 OUTER ITERATIONS 
       AND A TOTAL OF          5 INNER ITERATIONS.
    ------------------------------------------------

 NO OUTPUT CONTROL FOR STRESS PERIOD   12   TIME STEP   33
 
 SOLVING FOR HEAD 
                                                   Max.-Head-Change                         Max.-Flux-Residual
  Residual-Control   Outer-Iter.   Inner-Iter.     Column Row Layer    Maximum-Head-Change  Column Row Layer    Maximum-Flux-Residual          L2-NORM 
          0                 1           2             5    3     2      -0.1139770175E+00       4    3    2        -0.2151188651E+01      0.5592672937E+01
          0                 2           2             5    3     2       0.1085792854E-01       4    3    2         0.2123988367E+00      0.5272451798E+00
          0                 3           1             5    3     2      -0.6185150873E-03       4    3    2        -0.1248332324E-01      0.3059370812E-01

    ------------------------------------------------
       NWT REQUIRED            3 OUTER ITERATIONS 
       AND A TOTAL OF          5 INNER ITERATIONS.
    ------------------------------------------------

 NO OUTPUT CONTROL FOR STRESS PERIOD   12   TIME STEP   34
 
 SOLVING FOR HEAD 
                                                   Max.-Head-Change                         Max.-Flux-Residual
  Residual-Control   Outer-Iter.   Inner-Iter.     Column Row Layer    Maximum-Head-Change  Column Row Layer    Maximum-Flux-Residual          L2-NORM 
          0                 1           2             5    3     2      -0.1106322924E+00       4    3    2        -0.2117669707E+01      0.5524225509E+01
          0                 2           2             5    3     2       0.1053687697E-01       4    3    2         0.2090882743E+00      0.5210835861E+00
          0                 3           1             5    3     2      -0.6000489197E-03       3    3    2        -0.1230224196E-01      0.3024436025E-01

    ------------------------------------------------
       NWT REQUIRED            3 OUTER ITERATIONS 
       AND A TOTAL OF          5 INNER ITERATIONS.
    ------------------------------------------------

 NO OUTPUT CONTROL FOR STRESS PERIOD   12   TIME STEP   35
 
 SOLVING FOR HEAD 
                                                   Max.-Head-Change                         Max.-Flux-Residual
  Residual-Control   Outer-Iter.   Inner-Iter.     Column Row Layer    Maximum-Head-Change  Column Row Layer    Maximum-Flux-Residual          L2-NORM 
          0                 1           2             5    3     2      -0.1074509272E+00       4    3    2        -0.2084980190E+01      0.5458245035E+01
          0                 2           2             5    3     2       0.1023155590E-01       4    3    2         0.2058591194E+00      0.5150744091E+00
          0                 3           1             5    3     2      -0.5824891361E-03       3    3    2        -0.1214972972E-01      0.2990733836E-01

    ------------------------------------------------
       NWT REQUIRED            3 OUTER ITERATIONS 
       AND A TOTAL OF          5 INNER ITERATIONS.
    ------------------------------------------------

 NO OUTPUT CONTROL FOR STRESS PERIOD   12   TIME STEP   36
 
 SOLVING FOR HEAD 
                                                   Max.-Head-Change                         Max.-Flux-Residual
  Residual-Control   Outer-Iter.   Inner-Iter.     Column Row Layer    Maximum-Head-Change  Column Row Layer    Maximum-Flux-Residual          L2-NORM 
          0                 1           2             5    3     2      -0.1044227578E+00       4    3    2        -0.2053114423E+01      0.5394681956E+01
          0                 2           2             5    3     2       0.9941118319E-02       4    3    2         0.2027091706E+00      0.5093472201E+00
          0                 3           1             5    3     2      -0.5657916830E-03       3    3    2        -0.1200216265E-01      0.2958140115E-01

    ------------------------------------------------
       NWT REQUIRED            3 OUTER ITERATIONS 
       AND A TOTAL OF          5 INNER ITERATIONS.
    ------------------------------------------------

 NO OUTPUT CONTROL FOR STRESS PERIOD   12   TIME STEP   37
 
 SOLVING FOR HEAD 
                                                   Max.-Head-Change                         Max.-Flux-Residual
  Residual-Control   Outer-Iter.   Inner-Iter.     Column Row Layer    Maximum-Head-Change  Column Row Layer    Maximum-Flux-Residual          L2-NORM 
          0                 1           2             5    3     2      -0.1015387527E+00       4    3    2        -0.2022065814E+01      0.5333130082E+01
          0                 2           2             5    3     2       0.9664426692E-02       4    3    2         0.1996414443E+00      0.5037795752E+00
          0                 3           1             5    3     2      -0.5498825944E-03       3    3    2        -0.1185912671E-01      0.2926878298E-01

    ------------------------------------------------
       NWT REQUIRED            3 OUTER ITERATIONS 
       AND A TOTAL OF          5 INNER ITERATIONS.
    ------------------------------------------------

 NO OUTPUT CONTROL FOR STRESS PERIOD   12   TIME STEP   38
 
 SOLVING FOR HEAD 
                                                   Max.-Head-Change                         Max.-Flux-Residual
  Residual-Control   Outer-Iter.   Inner-Iter.     Column Row Layer    Maximum-Head-Change  Column Row Layer    Maximum-Flux-Residual          L2-NORM 
          0                 1           2             5    3     2      -0.9878984202E-01       4    3    2        -0.1991808722E+01      0.5273759570E+01
          0                 2           2             5    3     2       0.9400873356E-02       3    3    2         0.1969517285E+00      0.4985111524E+00
          0                 3           1             5    3     2      -0.5347307381E-03       3    3    2        -0.1172032835E-01      0.2896786170E-01

    ------------------------------------------------
       NWT REQUIRED            3 OUTER ITERATIONS 
       AND A TOTAL OF          5 INNER ITERATIONS.
    ------------------------------------------------

 NO OUTPUT CONTROL FOR STRESS PERIOD   12   TIME STEP   39
 
 SOLVING FOR HEAD 
                                                   Max.-Head-Change                         Max.-Flux-Residual
  Residual-Control   Outer-Iter.   Inner-Iter.     Column Row Layer    Maximum-Head-Change  Column Row Layer    Maximum-Flux-Residual          L2-NORM 
          0                 1           2             5    3     2      -0.9616800069E-01       4    3    2        -0.1962324552E+01      0.5216716671E+01
          0                 2           2             5    3     2       0.9149544046E-02       3    3    2         0.1946894562E+00      0.4933287696E+00
          0                 3           1             5    3     2      -0.5202880996E-03       3    3    2        -0.1158559910E-01      0.2867491209E-01

    ------------------------------------------------
       NWT REQUIRED            3 OUTER ITERATIONS 
       AND A TOTAL OF          5 INNER ITERATIONS.
    ------------------------------------------------

 NO OUTPUT CONTROL FOR STRESS PERIOD   12   TIME STEP   40
 
 SOLVING FOR HEAD 
                                                   Max.-Head-Change                         Max.-Flux-Residual
  Residual-Control   Outer-Iter.   Inner-Iter.     Column Row Layer    Maximum-Head-Change  Column Row Layer    Maximum-Flux-Residual          L2-NORM 
          0                 1           2             5    3     2      -0.9366597523E-01       3    3    2        -0.1934811847E+01      0.5161314909E+01
          0                 2           2             5    3     2       0.8909348299E-02       3    3    2         0.1924892777E+00      0.4882977583E+00
          0                 3           1             5    3     2      -0.5064875611E-03       3    3    2        -0.1145454969E-01      0.2838980019E-01

    ------------------------------------------------
       NWT REQUIRED            3 OUTER ITERATIONS 
       AND A TOTAL OF          5 INNER ITERATIONS.
    ------------------------------------------------

 NO OUTPUT CONTROL FOR STRESS PERIOD   12   TIME STEP   41
 
 SOLVING FOR HEAD 
                                                   Max.-Head-Change                         Max.-Flux-Residual
  Residual-Control   Outer-Iter.   Inner-Iter.     Column Row Layer    Maximum-Head-Change  Column Row Layer    Maximum-Flux-Residual          L2-NORM 
          0                 1           2             5    3     2      -0.9127728921E-01       3    3    2        -0.1913302782E+01      0.5107404919E+01
          0                 2           2             5    3     2       0.8680516916E-02       3    3    2         0.1903479214E+00      0.4833029044E+00
          0                 3           1             5    3     2      -0.4933372088E-03       3    3    2        -0.1132690394E-01      0.2810646894E-01

    ------------------------------------------------
       NWT REQUIRED            3 OUTER ITERATIONS 
       AND A TOTAL OF          5 INNER ITERATIONS.
    ------------------------------------------------

 NO OUTPUT CONTROL FOR STRESS PERIOD   12   TIME STEP   42
 
 SOLVING FOR HEAD 
                                                   Max.-Head-Change                         Max.-Flux-Residual
  Residual-Control   Outer-Iter.   Inner-Iter.     Column Row Layer    Maximum-Head-Change  Column Row Layer    Maximum-Flux-Residual          L2-NORM 
          0                 1           2             5    3     2      -0.8899468181E-01       3    3    2        -0.1892350413E+01      0.5054713863E+01
          0                 2           2             5    3     2       0.8461517145E-02       3    3    2         0.1882619434E+00      0.4785536374E+00
          0                 3           1             5    3     2      -0.4807608888E-03       3    3    2        -0.1120266648E-01      0.2783434442E-01

    ------------------------------------------------
       NWT REQUIRED            3 OUTER ITERATIONS 
       AND A TOTAL OF          5 INNER ITERATIONS.
    ------------------------------------------------

 NO OUTPUT CONTROL FOR STRESS PERIOD   12   TIME STEP   43
 
 SOLVING FOR HEAD 
                                                   Max.-Head-Change                         Max.-Flux-Residual
  Residual-Control   Outer-Iter.   Inner-Iter.     Column Row Layer    Maximum-Head-Change  Column Row Layer    Maximum-Flux-Residual          L2-NORM 
          0                 1           2             5    3     2      -0.8681181719E-01       3    3    2        -0.1871930242E+01      0.5003834788E+01
          0                 2           2             5    3     2       0.8252357055E-02       3    3    2         0.1862288645E+00      0.4738602462E+00
          0                 3           1             5    3     2      -0.4687467472E-03       3    3    2        -0.1108147627E-01      0.2756745443E-01

    ------------------------------------------------
       NWT REQUIRED            3 OUTER ITERATIONS 
       AND A TOTAL OF          5 INNER ITERATIONS.
    ------------------------------------------------

 NO OUTPUT CONTROL FOR STRESS PERIOD   12   TIME STEP   44
 
 SOLVING FOR HEAD 
                                                   Max.-Head-Change                         Max.-Flux-Residual
  Residual-Control   Outer-Iter.   Inner-Iter.     Column Row Layer    Maximum-Head-Change  Column Row Layer    Maximum-Flux-Residual          L2-NORM 
          0                 1           2             5    3     2      -0.8472402728E-01       3    3    2        -0.1851998450E+01      0.4954260142E+01
          0                 2           2             5    3     2       0.8052212730E-02       3    3    2         0.1842443004E+00      0.4693130620E+00
          0                 3           1             6    3     2      -0.4586931306E-03       3    3    2        -0.1096322919E-01      0.2730894956E-01

    ------------------------------------------------
       NWT REQUIRED            3 OUTER ITERATIONS 
       AND A TOTAL OF          5 INNER ITERATIONS.
    ------------------------------------------------

 NO OUTPUT CONTROL FOR STRESS PERIOD   12   TIME STEP   45
 
 SOLVING FOR HEAD 
                                                   Max.-Head-Change                         Max.-Flux-Residual
  Residual-Control   Outer-Iter.   Inner-Iter.     Column Row Layer    Maximum-Head-Change  Column Row Layer    Maximum-Flux-Residual          L2-NORM 
          0                 1           2             5    3     2      -0.8272482000E-01       3    3    2        -0.1832541883E+01      0.4906352164E+01
          0                 2           2             6    3     2       0.7769279712E-02       3    3    2         0.1821809350E+00      0.4639399719E+00
          0                 3           1             6    3     2      -0.4487783316E-03       3    3    2        -0.1126107379E-01      0.2717083595E-01

    ------------------------------------------------
       NWT REQUIRED            3 OUTER ITERATIONS 
       AND A TOTAL OF          5 INNER ITERATIONS.
    ------------------------------------------------

 NO OUTPUT CONTROL FOR STRESS PERIOD   12   TIME STEP   46
 
 SOLVING FOR HEAD 
                                                   Max.-Head-Change                         Max.-Flux-Residual
  Residual-Control   Outer-Iter.   Inner-Iter.     Column Row Layer    Maximum-Head-Change  Column Row Layer    Maximum-Flux-Residual          L2-NORM 
          0                 1           2             5    3     2      -0.8139566232E-01       3    3    2        -0.1813537123E+01      0.4860348839E+01
          0                 2           2             5    3     2       0.7732824876E-02       3    2    2         0.1776125703E+00      0.4585482770E+00
          0                 3           1             6    3     2      -0.4396205665E-03       3    2    2        -0.1065677515E-01      0.2668726017E-01

    ------------------------------------------------
       NWT REQUIRED            3 OUTER ITERATIONS 
       AND A TOTAL OF          5 INNER ITERATIONS.
    ------------------------------------------------

 NO OUTPUT CONTROL FOR STRESS PERIOD   12   TIME STEP   47
 
 SOLVING FOR HEAD 
                                                   Max.-Head-Change                         Max.-Flux-Residual
  Residual-Control   Outer-Iter.   Inner-Iter.     Column Row Layer    Maximum-Head-Change  Column Row Layer    Maximum-Flux-Residual          L2-NORM 
          0                 1           2             5    3     2      -0.7988586194E-01       3    3    2        -0.1799350190E+01      0.4817644058E+01
          0                 2           2             5    3     2       0.7588468356E-02       3    3    2         0.1790033271E+00      0.4566370127E+00
          0                 3           1             5    3     2      -0.4306310211E-03       3    3    2        -0.1065104468E-01      0.2658840695E-01

    ------------------------------------------------
       NWT REQUIRED            3 OUTER ITERATIONS 
       AND A TOTAL OF          5 INNER ITERATIONS.
    ------------------------------------------------

 NO OUTPUT CONTROL FOR STRESS PERIOD   12   TIME STEP   48
 
 SOLVING FOR HEAD 
                                                   Max.-Head-Change                         Max.-Flux-Residual
  Residual-Control   Outer-Iter.   Inner-Iter.     Column Row Layer    Maximum-Head-Change  Column Row Layer    Maximum-Flux-Residual          L2-NORM 
          0                 1           2             5    3     2      -0.7842348273E-01       3    3    2        -0.1785562734E+01      0.4775857163E+01
          0                 2           2             5    3     2       0.7448502412E-02       3    3    2         0.1776319846E+00      0.4528525257E+00
          0                 3           1             5    3     2      -0.4226117848E-03       3    2    2        -0.1059475772E-01      0.2637293651E-01

    ------------------------------------------------
       NWT REQUIRED            3 OUTER ITERATIONS 
       AND A TOTAL OF          5 INNER ITERATIONS.
    ------------------------------------------------

 NO OUTPUT CONTROL FOR STRESS PERIOD   12   TIME STEP   49
 
 SOLVING FOR HEAD 
                                                   Max.-Head-Change                         Max.-Flux-Residual
  Residual-Control   Outer-Iter.   Inner-Iter.     Column Row Layer    Maximum-Head-Change  Column Row Layer    Maximum-Flux-Residual          L2-NORM 
          0                 1           2             5    3     2      -0.7700811191E-01       3    3    2        -0.1771824143E+01      0.4735486052E+01
          0                 2           2             5    3     2       0.7314390232E-02       3    3    2         0.1762652291E+00      0.4492432081E+00
          0                 3           1             5    3     2      -0.4148730676E-03       3    2    2        -0.1056163426E-01      0.2616055432E-01

    ------------------------------------------------
       NWT REQUIRED            3 OUTER ITERATIONS 
       AND A TOTAL OF          5 INNER ITERATIONS.
    ------------------------------------------------

 NO OUTPUT CONTROL FOR STRESS PERIOD   12   TIME STEP   50
 
 SOLVING FOR HEAD 
                                                   Max.-Head-Change                         Max.-Flux-Residual
  Residual-Control   Outer-Iter.   Inner-Iter.     Column Row Layer    Maximum-Head-Change  Column Row Layer    Maximum-Flux-Residual          L2-NORM 
          0                 1           2             5    3     2      -0.7564461428E-01       3    3    2        -0.1758145715E+01      0.4697972334E+01
          0                 2           2             5    3     2       0.7185176466E-02       3    2    2         0.1754534522E+00      0.4459101361E+00
          0                 3           1             5    3     2      -0.4075131993E-03       3    2    2        -0.1052722739E-01      0.2595612914E-01

    ------------------------------------------------
       NWT REQUIRED            3 OUTER ITERATIONS 
       AND A TOTAL OF          5 INNER ITERATIONS.
    ------------------------------------------------

 NO OUTPUT CONTROL FOR STRESS PERIOD   12   TIME STEP   51
 
 SOLVING FOR HEAD 
                                                   Max.-Head-Change                         Max.-Flux-Residual
  Residual-Control   Outer-Iter.   Inner-Iter.     Column Row Layer    Maximum-Head-Change  Column Row Layer    Maximum-Flux-Residual          L2-NORM 
          0                 1           2             5    3     2      -0.7432285164E-01       3    2    2        -0.1748626641E+01      0.4659943841E+01
          0                 2           2             5    3     2       0.7058753283E-02       3    2    2         0.1748601621E+00      0.4423712829E+00
          0                 3           1             5    3     2      -0.4003762483E-03       3    2    2        -0.1049163054E-01      0.2575710211E-01

    ------------------------------------------------
       NWT REQUIRED            3 OUTER ITERATIONS 
       AND A TOTAL OF          5 INNER ITERATIONS.
    ------------------------------------------------

 NO OUTPUT CONTROL FOR STRESS PERIOD   12   TIME STEP   52
 
 SOLVING FOR HEAD 
                                                   Max.-Head-Change                         Max.-Flux-Residual
  Residual-Control   Outer-Iter.   Inner-Iter.     Column Row Layer    Maximum-Head-Change  Column Row Layer    Maximum-Flux-Residual          L2-NORM 
          0                 1           2             5    3     2      -0.7304123619E-01       3    2    2        -0.1742513884E+01      0.4622322641E+01
          0                 2           2             5    3     2       0.6936028485E-02       3    2    2         0.1742488328E+00      0.4388984202E+00
          0                 3           1             5    3     2      -0.3932393867E-03       3    2    2        -0.1045495128E-01      0.2556390496E-01

    ------------------------------------------------
       NWT REQUIRED            3 OUTER ITERATIONS 
       AND A TOTAL OF          5 INNER ITERATIONS.
    ------------------------------------------------

 NO OUTPUT CONTROL FOR STRESS PERIOD   12   TIME STEP   53
 
 SOLVING FOR HEAD 
                                                   Max.-Head-Change                         Max.-Flux-Residual
  Residual-Control   Outer-Iter.   Inner-Iter.     Column Row Layer    Maximum-Head-Change  Column Row Layer    Maximum-Flux-Residual          L2-NORM 
          0                 1           2             5    3     2      -0.7179735140E-01       3    2    2        -0.1736231753E+01      0.4585529635E+01
          0                 2           2             5    3     2       0.6817142570E-02       3    2    2         0.1736205712E+00      0.4355256252E+00
          0                 3           1             5    3     2      -0.3864299271E-03       3    2    2        -0.1041725603E-01      0.2537607140E-01

    ------------------------------------------------
       NWT REQUIRED            3 OUTER ITERATIONS 
       AND A TOTAL OF          5 INNER ITERATIONS.
    ------------------------------------------------

 NO OUTPUT CONTROL FOR STRESS PERIOD   12   TIME STEP   54
 
 SOLVING FOR HEAD 
                                                   Max.-Head-Change                         Max.-Flux-Residual
  Residual-Control   Outer-Iter.   Inner-Iter.     Column Row Layer    Maximum-Head-Change  Column Row Layer    Maximum-Flux-Residual          L2-NORM 
          0                 1           2             5    3     2      -0.7059119671E-01       3    2    2        -0.1729793815E+01      0.4549389902E+01
          0                 2           2             5    3     2       0.6700008457E-02       3    2    2         0.1729767337E+00      0.4313691508E+00
          0                 3           1             5    3     2      -0.3797190651E-03       3    2    2        -0.1037862623E-01      0.2514102859E-01

    ------------------------------------------------
       NWT REQUIRED            3 OUTER ITERATIONS 
       AND A TOTAL OF          5 INNER ITERATIONS.
    ------------------------------------------------

 NO OUTPUT CONTROL FOR STRESS PERIOD   12   TIME STEP   55
 
 SOLVING FOR HEAD 
                                                   Max.-Head-Change                         Max.-Flux-Residual
  Residual-Control   Outer-Iter.   Inner-Iter.     Column Row Layer    Maximum-Head-Change  Column Row Layer    Maximum-Flux-Residual          L2-NORM 
          0                 1           2             5    3     2      -0.6942789762E-01       3    2    2        -0.1723217148E+01      0.4514885569E+01
          0                 2           2             5    3     2       0.6590473249E-02       3    2    2         0.1723190298E+00      0.4290627861E+00
          0                 3           1             5    3     2      -0.3734505232E-03       3    2    2        -0.1033916430E-01      0.2501762858E-01

    ------------------------------------------------
       NWT REQUIRED            3 OUTER ITERATIONS 
       AND A TOTAL OF          5 INNER ITERATIONS.
    ------------------------------------------------

 NO OUTPUT CONTROL FOR STRESS PERIOD   12   TIME STEP   56
 
 SOLVING FOR HEAD 
                                                   Max.-Head-Change                         Max.-Flux-Residual
  Residual-Control   Outer-Iter.   Inner-Iter.     Column Row Layer    Maximum-Head-Change  Column Row Layer    Maximum-Flux-Residual          L2-NORM 
          0                 1           2             5    3     2      -0.6830096913E-01       3    2    2        -0.1716510118E+01      0.4482077730E+01
          0                 2           2             5    3     2       0.6482677416E-02       3    2    2         0.1716482945E+00      0.4260217057E+00
          0                 3           1             5    3     2      -0.3672772953E-03       3    2    2        -0.1029892048E-01      0.2484983627E-01

    ------------------------------------------------
       NWT REQUIRED            3 OUTER ITERATIONS 
       AND A TOTAL OF          5 INNER ITERATIONS.
    ------------------------------------------------

 NO OUTPUT CONTROL FOR STRESS PERIOD   12   TIME STEP   57
 
 SOLVING FOR HEAD 
                                                   Max.-Head-Change                         Max.-Flux-Residual
  Residual-Control   Outer-Iter.   Inner-Iter.     Column Row Layer    Maximum-Head-Change  Column Row Layer    Maximum-Flux-Residual          L2-NORM 
          0                 1           2             5    3     2      -0.6721048302E-01       3    2    2        -0.1709689497E+01      0.4449496943E+01
          0                 2           2             5    3     2       0.6378369506E-02       3    2    2         0.1709662047E+00      0.4230602975E+00
          0                 3           1             3    2     2      -0.3652094492E-03       3    2    2        -0.1025799536E-01      0.2468654061E-01

    ------------------------------------------------
       NWT REQUIRED            3 OUTER ITERATIONS 
       AND A TOTAL OF          5 INNER ITERATIONS.
    ------------------------------------------------

 NO OUTPUT CONTROL FOR STRESS PERIOD   12   TIME STEP   58
 
 SOLVING FOR HEAD 
                                                   Max.-Head-Change                         Max.-Flux-Residual
  Residual-Control   Outer-Iter.   Inner-Iter.     Column Row Layer    Maximum-Head-Change  Column Row Layer    Maximum-Flux-Residual          L2-NORM 
          0                 1           2             5    3     2      -0.6615423834E-01       3    2    2        -0.1702770753E+01      0.4417965262E+01
          0                 2           2             3    2     2       0.6291472088E-02       3    2    2         0.1702743068E+00      0.4201490577E+00
          0                 3           1             3    2     2      -0.3637067510E-03       3    2    2        -0.1021648170E-01      0.2452582937E-01

    ------------------------------------------------
       NWT REQUIRED            3 OUTER ITERATIONS 
       AND A TOTAL OF          5 INNER ITERATIONS.
    ------------------------------------------------

 NO OUTPUT CONTROL FOR STRESS PERIOD   12   TIME STEP   59
 
 SOLVING FOR HEAD 
                                                   Max.-Head-Change                         Max.-Flux-Residual
  Residual-Control   Outer-Iter.   Inner-Iter.     Column Row Layer    Maximum-Head-Change  Column Row Layer    Maximum-Flux-Residual          L2-NORM 
          0                 1           2             5    3     2      -0.6513109574E-01       3    2    2        -0.1695759098E+01      0.4387201608E+01
          0                 2           2             3    2     2       0.6265167113E-02       3    2    2         0.1695731217E+00      0.4173009972E+00
          0                 3           1             3    2     2      -0.3621863040E-03       3    2    2        -0.1017441078E-01      0.2436642253E-01

    ------------------------------------------------
       NWT REQUIRED            3 OUTER ITERATIONS 
       AND A TOTAL OF          5 INNER ITERATIONS.
    ------------------------------------------------

 NO OUTPUT CONTROL FOR STRESS PERIOD   12   TIME STEP   60
 
 SOLVING FOR HEAD 
                                                   Max.-Head-Change                         Max.-Flux-Residual
  Residual-Control   Outer-Iter.   Inner-Iter.     Column Row Layer    Maximum-Head-Change  Column Row Layer    Maximum-Flux-Residual          L2-NORM 
          0                 1           2             3    2     2      -0.6475300699E-01       3    2    2        -0.1688668190E+01      0.4357336925E+01
          0                 2           2             3    2     2       0.6238603834E-02       3    2    2         0.1688640150E+00      0.4144953333E+00
          0                 3           1             3    2     2      -0.3606509049E-03       3    2    2        -0.1013186453E-01      0.2420643087E-01

    ------------------------------------------------
       NWT REQUIRED            3 OUTER ITERATIONS 
       AND A TOTAL OF          5 INNER ITERATIONS.
    ------------------------------------------------

 NO OUTPUT CONTROL FOR STRESS PERIOD   12   TIME STEP   61
 
 SOLVING FOR HEAD 
                                                   Max.-Head-Change                         Max.-Flux-Residual
  Residual-Control   Outer-Iter.   Inner-Iter.     Column Row Layer    Maximum-Head-Change  Column Row Layer    Maximum-Flux-Residual          L2-NORM 
          0                 1           2             3    2     2      -0.6447506146E-01       3    2    2        -0.1681510849E+01      0.4327804896E+01
          0                 2           2             3    2     2       0.6211826381E-02       3    2    2         0.1681482683E+00      0.4117401311E+00
          0                 3           1             3    2     2      -0.3591030389E-03       3    2    2        -0.1008891985E-01      0.2404866628E-01

    ------------------------------------------------
       NWT REQUIRED            3 OUTER ITERATIONS 
       AND A TOTAL OF          5 INNER ITERATIONS.
    ------------------------------------------------

 NO OUTPUT CONTROL FOR STRESS PERIOD   12   TIME STEP   62
 
 SOLVING FOR HEAD 
                                                   Max.-Head-Change                         Max.-Flux-Residual
  Residual-Control   Outer-Iter.   Inner-Iter.     Column Row Layer    Maximum-Head-Change  Column Row Layer    Maximum-Flux-Residual          L2-NORM 
          0                 1           2             3    2     2      -0.6419497897E-01       3    2    2        -0.1674289755E+01      0.4298649078E+01
          0                 2           2             3    2     2       0.6184842906E-02       3    2    2         0.1674261492E+00      0.4090549344E+00
          0                 3           1             3    2     2      -0.3575433490E-03       3    2    2        -0.1004559280E-01      0.2389600783E-01

    ------------------------------------------------
       NWT REQUIRED            3 OUTER ITERATIONS 
       AND A TOTAL OF          5 INNER ITERATIONS.
    ------------------------------------------------

 NO OUTPUT CONTROL FOR STRESS PERIOD   12   TIME STEP   63
 
 SOLVING FOR HEAD 
                                                   Max.-Head-Change                         Max.-Flux-Residual
  Residual-Control   Outer-Iter.   Inner-Iter.     Column Row Layer    Maximum-Head-Change  Column Row Layer    Maximum-Flux-Residual          L2-NORM 
          0                 1           2             3    2     2      -0.6391316965E-01       3    2    2        -0.1667016312E+01      0.4270134852E+01
          0                 2           2             3    2     2       0.6157692972E-02       3    2    2         0.1666987981E+00      0.4064786280E+00
          0                 3           1             3    2     2      -0.3559739520E-03       3    2    2        -0.1000195180E-01      0.2374654565E-01

    ------------------------------------------------
       NWT REQUIRED            3 OUTER ITERATIONS 
       AND A TOTAL OF          5 INNER ITERATIONS.
    ------------------------------------------------

 NO OUTPUT CONTROL FOR STRESS PERIOD   12   TIME STEP   64
 
 SOLVING FOR HEAD 
                                                   Max.-Head-Change                         Max.-Flux-Residual
  Residual-Control   Outer-Iter.   Inner-Iter.     Column Row Layer    Maximum-Head-Change  Column Row Layer    Maximum-Flux-Residual          L2-NORM 
          0                 1           2             3    2     2      -0.6362990635E-01       3    2    2        -0.1659698074E+01      0.4242508315E+01
          0                 2           2             3    2     2       0.6130402637E-02       3    2    2         0.1659669700E+00      0.4035664583E+00
          0                 3           1             3    2     2      -0.3543963661E-03       3    2    2        -0.9958042162E-02      0.2357722910E-01

    ------------------------------------------------
       NWT REQUIRED            3 OUTER ITERATIONS 
       AND A TOTAL OF          5 INNER ITERATIONS.
    ------------------------------------------------

 NO OUTPUT CONTROL FOR STRESS PERIOD   12   TIME STEP   65
 
 SOLVING FOR HEAD 
                                                   Max.-Head-Change                         Max.-Flux-Residual
  Residual-Control   Outer-Iter.   Inner-Iter.     Column Row Layer    Maximum-Head-Change  Column Row Layer    Maximum-Flux-Residual          L2-NORM 
          0                 1           2             3    2     2      -0.6334543453E-01       3    2    2        -0.1652342126E+01      0.4215099096E+01
          0                 2           2             3    2     2       0.6102995817E-02       3    2    2         0.1652313732E+00      0.4014088099E+00
          0                 3           1             3    2     2      -0.3528121517E-03       3    2    2        -0.9913906367E-02      0.2345532547E-01

    ------------------------------------------------
       NWT REQUIRED            3 OUTER ITERATIONS 
       AND A TOTAL OF          5 INNER ITERATIONS.
    ------------------------------------------------

 NO OUTPUT CONTROL FOR STRESS PERIOD   12   TIME STEP   66
 
 SOLVING FOR HEAD 
                                                   Max.-Head-Change                         Max.-Flux-Residual
  Residual-Control   Outer-Iter.   Inner-Iter.     Column Row Layer    Maximum-Head-Change  Column Row Layer    Maximum-Flux-Residual          L2-NORM 
          0                 1           2             3    2     2      -0.6305998965E-01       3    2    2        -0.1644954834E+01      0.4188536980E+01
          0                 2           2             3    2     2       0.6075495119E-02       3    2    2         0.1644926441E+00      0.3989665045E+00
          0                 3           1             3    2     2      -0.3512223590E-03       3    2    2        -0.9869582630E-02      0.2331577161E-01

    ------------------------------------------------
       NWT REQUIRED            3 OUTER ITERATIONS 
       AND A TOTAL OF          5 INNER ITERATIONS.
    ------------------------------------------------

 NO OUTPUT CONTROL FOR STRESS PERIOD   12   TIME STEP   67
 
 SOLVING FOR HEAD 
                                                   Max.-Head-Change                         Max.-Flux-Residual
  Residual-Control   Outer-Iter.   Inner-Iter.     Column Row Layer    Maximum-Head-Change  Column Row Layer    Maximum-Flux-Residual          L2-NORM 
          0                 1           2             3    2     2      -0.6277378003E-01       3    2    2        -0.1637542302E+01      0.4162759863E+01
          0                 2           2             3    2     2       0.6047920619E-02       3    2    2         0.1637513930E+00      0.3966505667E+00
          0                 3           1             3    2     2      -0.3496283747E-03       3    2    2        -0.9825107556E-02      0.2318146558E-01

    ------------------------------------------------
       NWT REQUIRED            3 OUTER ITERATIONS 
       AND A TOTAL OF          5 INNER ITERATIONS.
    ------------------------------------------------

 NO OUTPUT CONTROL FOR STRESS PERIOD   12   TIME STEP   68
 
 SOLVING FOR HEAD 
                                                   Max.-Head-Change                         Max.-Flux-Residual
  Residual-Control   Outer-Iter.   Inner-Iter.     Column Row Layer    Maximum-Head-Change  Column Row Layer    Maximum-Flux-Residual          L2-NORM 
          0                 1           2             3    2     2      -0.6248689133E-01       3    2    2        -0.1630106865E+01      0.4137473209E+01
          0                 2           2             3    2     2       0.6020280494E-02       3    2    2         0.1630078533E+00      0.3943233865E+00
          0                 3           1             3    2     2      -0.3480304889E-03       3    2    2        -0.9780495142E-02      0.2304642447E-01

    ------------------------------------------------
       NWT REQUIRED            3 OUTER ITERATIONS 
       AND A TOTAL OF          5 INNER ITERATIONS.
    ------------------------------------------------

 NO OUTPUT CONTROL FOR STRESS PERIOD   12   TIME STEP   69
 
 SOLVING FOR HEAD 
                                                   Max.-Head-Change                         Max.-Flux-Residual
  Residual-Control   Outer-Iter.   Inner-Iter.     Column Row Layer    Maximum-Head-Change  Column Row Layer    Maximum-Flux-Residual          L2-NORM 
          0                 1           2             3    2     2      -0.6219974240E-01       3    2    2        -0.1622659970E+01      0.4112751874E+01
          0                 2           2             3    2     2       0.5992615148E-02       3    2    2         0.1622631693E+00      0.3920247820E+00
          0                 3           1             3    2     2      -0.3464312394E-03       3    2    2        -0.9735814064E-02      0.2291443073E-01

    ------------------------------------------------
       NWT REQUIRED            3 OUTER ITERATIONS 
       AND A TOTAL OF          5 INNER ITERATIONS.
    ------------------------------------------------

 NO OUTPUT CONTROL FOR STRESS PERIOD   12   TIME STEP   70
 
 SOLVING FOR HEAD 
                                                   Max.-Head-Change                         Max.-Flux-Residual
  Residual-Control   Outer-Iter.   Inner-Iter.     Column Row Layer    Maximum-Head-Change  Column Row Layer    Maximum-Flux-Residual          L2-NORM 
          0                 1           2             3    2     2      -0.6191226428E-01       3    2    2        -0.1615200187E+01      0.4088486420E+01
          0                 2           2             3    2     2       0.5964917990E-02       3    2    2         0.1615171982E+00      0.3898500110E+00
          0                 3           1             3    2     2      -0.3448300686E-03       3    2    2        -0.9691055736E-02      0.2278890985E-01

    ------------------------------------------------
       NWT REQUIRED            3 OUTER ITERATIONS 
       AND A TOTAL OF          5 INNER ITERATIONS.
    ------------------------------------------------

 NO OUTPUT CONTROL FOR STRESS PERIOD   12   TIME STEP   71
 
 SOLVING FOR HEAD 
                                                   Max.-Head-Change                         Max.-Flux-Residual
  Residual-Control   Outer-Iter.   Inner-Iter.     Column Row Layer    Maximum-Head-Change  Column Row Layer    Maximum-Flux-Residual          L2-NORM 
          0                 1           2             3    2     2      -0.6162473719E-01       3    2    2        -0.1607734945E+01      0.4064700931E+01
          0                 2           2             3    2     2       0.5937216015E-02       3    2    2         0.1607706825E+00      0.3877722394E+00
          0                 3           1             3    2     2      -0.3432285328E-03       3    2    2        -0.9646264722E-02      0.2266933174E-01

    ------------------------------------------------
       NWT REQUIRED            3 OUTER ITERATIONS 
       AND A TOTAL OF          5 INNER ITERATIONS.
    ------------------------------------------------

 NO OUTPUT CONTROL FOR STRESS PERIOD   12   TIME STEP   72
 
 SOLVING FOR HEAD 
                                                   Max.-Head-Change                         Max.-Flux-Residual
  Residual-Control   Outer-Iter.   Inner-Iter.     Column Row Layer    Maximum-Head-Change  Column Row Layer    Maximum-Flux-Residual          L2-NORM 
          0                 1           2             3    2     2      -0.6133730123E-01       3    2    2        -0.1600268439E+01      0.4041313813E+01
          0                 2           2             3    2     2       0.5909522699E-02       3    2    2         0.1600240417E+00      0.3857594021E+00
          0                 3           1             3    2     2      -0.3416276449E-03       3    2    2        -0.9601466190E-02      0.2255389091E-01

    ------------------------------------------------
       NWT REQUIRED            3 OUTER ITERATIONS 
       AND A TOTAL OF          5 INNER ITERATIONS.
    ------------------------------------------------

 NO OUTPUT CONTROL FOR STRESS PERIOD   12   TIME STEP   73
 
 SOLVING FOR HEAD 
                                                   Max.-Head-Change                         Max.-Flux-Residual
  Residual-Control   Outer-Iter.   Inner-Iter.     Column Row Layer    Maximum-Head-Change  Column Row Layer    Maximum-Flux-Residual          L2-NORM 
          0                 1           2             3    2     2      -0.6105009093E-01       3    2    2        -0.1592804312E+01      0.4018502247E+01
          0                 2           2             3    2     2       0.5881851020E-02       3    2    2         0.1592776398E+00      0.3837927933E+00
          0                 3           1             3    2     2      -0.3400278944E-03       3    2    2        -0.9556681983E-02      0.2244075481E-01

    ------------------------------------------------
       NWT REQUIRED            3 OUTER ITERATIONS 
       AND A TOTAL OF          5 INNER ITERATIONS.
    ------------------------------------------------

 NO OUTPUT CONTROL FOR STRESS PERIOD   12   TIME STEP   74
 ..........LAKE  1 IS DRY..........
 
 SOLVING FOR HEAD 
                                                   Max.-Head-Change                         Max.-Flux-Residual
  Residual-Control   Outer-Iter.   Inner-Iter.     Column Row Layer    Maximum-Head-Change  Column Row Layer    Maximum-Flux-Residual          L2-NORM 
          0                 1           2             3    2     2      -0.6076323219E-01       3    2    2        -0.1585346045E+01      0.3995587978E+01
          0                 2           2             3    2     2       0.5854213115E-02       3    2    2         0.1585318252E+00      0.3818852447E+00
          0                 3           1             3    2     2      -0.3384301071E-03       3    2    2        -0.9511933003E-02      0.2233158458E-01

    ------------------------------------------------
       NWT REQUIRED            3 OUTER ITERATIONS 
       AND A TOTAL OF          5 INNER ITERATIONS.
    ------------------------------------------------

 NO OUTPUT CONTROL FOR STRESS PERIOD   12   TIME STEP   75
 ..........LAKE  1 IS DRY..........
 
 SOLVING FOR HEAD 
                                                   Max.-Head-Change                         Max.-Flux-Residual
  Residual-Control   Outer-Iter.   Inner-Iter.     Column Row Layer    Maximum-Head-Change  Column Row Layer    Maximum-Flux-Residual          L2-NORM 
          0                 1           2             3    2     2      -0.6047672175E-01       3    2    2        -0.1577893840E+01      0.3973260042E+01
          0                 2           2             3    2     2       0.5826608802E-02       3    2    2         0.1577866177E+00      0.3799169607E+00
          0                 3           1             3    2     2      -0.3368342102E-03       3    2    2        -0.9467220437E-02      0.2221679952E-01

    ------------------------------------------------
       NWT REQUIRED            3 OUTER ITERATIONS 
       AND A TOTAL OF          5 INNER ITERATIONS.
    ------------------------------------------------

 NO OUTPUT CONTROL FOR STRESS PERIOD   12   TIME STEP   76
 ..........LAKE  1 IS DRY..........
 
 SOLVING FOR HEAD 
                                                   Max.-Head-Change                         Max.-Flux-Residual
  Residual-Control   Outer-Iter.   Inner-Iter.     Column Row Layer    Maximum-Head-Change  Column Row Layer    Maximum-Flux-Residual          L2-NORM 
          0                 1           2             3    2     2      -0.6019090430E-01       3    2    2        -0.1570456813E+01      0.3950883505E+01
          0                 2           2             3    2     2       0.5799070809E-02       3    2    2         0.1570429289E+00      0.3778127390E+00
          0                 3           1             3    2     2      -0.3352421929E-03       3    2    2        -0.9422598993E-02      0.2209510773E-01

    ------------------------------------------------
       NWT REQUIRED            3 OUTER ITERATIONS 
       AND A TOTAL OF          5 INNER ITERATIONS.
    ------------------------------------------------

 NO OUTPUT CONTROL FOR STRESS PERIOD   12   TIME STEP   77
 ..........LAKE  1 IS DRY..........
 
 SOLVING FOR HEAD 
                                                   Max.-Head-Change                         Max.-Flux-Residual
  Residual-Control   Outer-Iter.   Inner-Iter.     Column Row Layer    Maximum-Head-Change  Column Row Layer    Maximum-Flux-Residual          L2-NORM 
          0                 1           2             3    2     2      -0.5990564153E-01       3    2    2        -0.1563031650E+01      0.3928633800E+01
          0                 2           2             3    2     2       0.5771586309E-02       3    2    2         0.1563004274E+00      0.3756788477E+00
          0                 3           1             3    2     2      -0.3336531906E-03       3    2    2        -0.9378048773E-02      0.2196320327E-01

    ------------------------------------------------
       NWT REQUIRED            3 OUTER ITERATIONS 
       AND A TOTAL OF          5 INNER ITERATIONS.
    ------------------------------------------------

 NO OUTPUT CONTROL FOR STRESS PERIOD   12   TIME STEP   78
 ..........LAKE  1 IS DRY..........
 
 SOLVING FOR HEAD 
                                                   Max.-Head-Change                         Max.-Flux-Residual
  Residual-Control   Outer-Iter.   Inner-Iter.     Column Row Layer    Maximum-Head-Change  Column Row Layer    Maximum-Flux-Residual          L2-NORM 
          0                 1           2             3    2     2      -0.5962114343E-01       3    2    2        -0.1555623948E+01      0.3906984320E+01
          0                 2           2             3    2     2       0.5744175297E-02       3    2    2         0.1555596727E+00      0.3735636008E+00
          0                 3           1             3    2     2      -0.3320684961E-03       3    2    2        -0.9333603355E-02      0.2184236559E-01

    ------------------------------------------------
       NWT REQUIRED            3 OUTER ITERATIONS 
       AND A TOTAL OF          5 INNER ITERATIONS.
    ------------------------------------------------

 NO OUTPUT CONTROL FOR STRESS PERIOD   12   TIME STEP   79
 ..........LAKE  1 IS DRY..........
 
 SOLVING FOR HEAD 
                                                   Max.-Head-Change                         Max.-Flux-Residual
  Residual-Control   Outer-Iter.   Inner-Iter.     Column Row Layer    Maximum-Head-Change  Column Row Layer    Maximum-Flux-Residual          L2-NORM 
          0                 1           2             3    2     2      -0.5933749045E-01       3    2    2        -0.1548236098E+01      0.3886309160E+01
          0                 2           2             3    2     2       0.5716845679E-02       3    2    2         0.1548209039E+00      0.3715579037E+00
          0                 3           1             3    2     2      -0.3304884516E-03       3    2    2        -0.9289277085E-02      0.2172465902E-01

    ------------------------------------------------
       NWT REQUIRED            3 OUTER ITERATIONS 
       AND A TOTAL OF          5 INNER ITERATIONS.
    ------------------------------------------------

 NO OUTPUT CONTROL FOR STRESS PERIOD   12   TIME STEP   80
 ..........LAKE  1 IS DRY..........
 
 SOLVING FOR HEAD 
                                                   Max.-Head-Change                         Max.-Flux-Residual
  Residual-Control   Outer-Iter.   Inner-Iter.     Column Row Layer    Maximum-Head-Change  Column Row Layer    Maximum-Flux-Residual          L2-NORM 
          0                 1           2             3    2     2      -0.5905476086E-01       3    2    2        -0.1540870180E+01      0.3865351990E+01
          0                 2           2             3    2     2       0.5689604964E-02       3    2    2         0.1540843289E+00      0.3695575160E+00
          0                 3           1             3    2     2      -0.3289135500E-03       3    2    2        -0.9245082448E-02      0.2160855195E-01

    ------------------------------------------------
       NWT REQUIRED            3 OUTER ITERATIONS 
       AND A TOTAL OF          5 INNER ITERATIONS.
    ------------------------------------------------

 NO OUTPUT CONTROL FOR STRESS PERIOD   12   TIME STEP   81
 ..........LAKE  1 IS DRY..........
 
 SOLVING FOR HEAD 
                                                   Max.-Head-Change                         Max.-Flux-Residual
  Residual-Control   Outer-Iter.   Inner-Iter.     Column Row Layer    Maximum-Head-Change  Column Row Layer    Maximum-Flux-Residual          L2-NORM 
          0                 1           2             3    2     2      -0.5877302384E-01       3    2    2        -0.1533528227E+01      0.3844586000E+01
          0                 2           2             3    2     2       0.5662459776E-02       3    2    2         0.1533501510E+00      0.3675778055E+00
          0                 3           1             3    2     2      -0.3273441394E-03       3    2    2        -0.9201031623E-02      0.2149365583E-01

    ------------------------------------------------
       NWT REQUIRED            3 OUTER ITERATIONS 
       AND A TOTAL OF          5 INNER ITERATIONS.
    ------------------------------------------------

 NO OUTPUT CONTROL FOR STRESS PERIOD   12   TIME STEP   82
 ..........LAKE  1 IS DRY..........
 
 SOLVING FOR HEAD 
                                                   Max.-Head-Change                         Max.-Flux-Residual
  Residual-Control   Outer-Iter.   Inner-Iter.     Column Row Layer    Maximum-Head-Change  Column Row Layer    Maximum-Flux-Residual          L2-NORM 
          0                 1           2             3    2     2      -0.5849234742E-01       3    2    2        -0.1526212035E+01      0.3824117454E+01
          0                 2           2             3    2     2       0.5635416666E-02       3    2    2         0.1526185496E+00      0.3656241877E+00
          0                 3           1             3    2     2      -0.3257806329E-03       3    2    2        -0.9157135378E-02      0.2138019020E-01

    ------------------------------------------------
       NWT REQUIRED            3 OUTER ITERATIONS 
       AND A TOTAL OF          5 INNER ITERATIONS.
    ------------------------------------------------

 NO OUTPUT CONTROL FOR STRESS PERIOD   12   TIME STEP   83
 ..........LAKE  1 IS DRY..........
 
 SOLVING FOR HEAD 
                                                   Max.-Head-Change                         Max.-Flux-Residual
  Residual-Control   Outer-Iter.   Inner-Iter.     Column Row Layer    Maximum-Head-Change  Column Row Layer    Maximum-Flux-Residual          L2-NORM 
          0                 1           2             3    2     2      -0.5821278927E-01       3    2    2        -0.1518923369E+01      0.3803892454E+01
          0                 2           2             3    2     2       0.5608481236E-02       3    2    2         0.1518897013E+00      0.3636961634E+00
          0                 3           1             3    2     2      -0.3242233873E-03       3    2    2        -0.9113404320E-02      0.2126825436E-01

    ------------------------------------------------
       NWT REQUIRED            3 OUTER ITERATIONS 
       AND A TOTAL OF          5 INNER ITERATIONS.
    ------------------------------------------------

 NO OUTPUT CONTROL FOR STRESS PERIOD   12   TIME STEP   84
 ..........LAKE  1 IS DRY..........
 
 SOLVING FOR HEAD 
                                                   Max.-Head-Change                         Max.-Flux-Residual
  Residual-Control   Outer-Iter.   Inner-Iter.     Column Row Layer    Maximum-Head-Change  Column Row Layer    Maximum-Flux-Residual          L2-NORM 
          0                 1           2             3    2     2      -0.5793429108E-01       3    2    2        -0.1511660665E+01      0.3783760827E+01
          0                 2           2             3    2     2       0.5581647792E-02       3    2    2         0.1511634497E+00      0.3618036422E+00
          0                 3           1             3    2     2      -0.3226719144E-03       3    2    2        -0.9069829053E-02      0.2115787503E-01

    ------------------------------------------------
       NWT REQUIRED            3 OUTER ITERATIONS 
       AND A TOTAL OF          5 INNER ITERATIONS.
    ------------------------------------------------

 NO OUTPUT CONTROL FOR STRESS PERIOD   12   TIME STEP   85
 ..........LAKE  1 IS DRY..........
 
 SOLVING FOR HEAD 
                                                   Max.-Head-Change                         Max.-Flux-Residual
  Residual-Control   Outer-Iter.   Inner-Iter.     Column Row Layer    Maximum-Head-Change  Column Row Layer    Maximum-Flux-Residual          L2-NORM 
          0                 1           2             3    2     2      -0.5765712951E-01       3    2    2        -0.1504431587E+01      0.3763901905E+01
          0                 2           2             3    2     2       0.5554943134E-02       3    2    2         0.1504405610E+00      0.3599363282E+00
          0                 3           1             3    2     2      -0.3211279494E-03       3    2    2        -0.9026455562E-02      0.2104902429E-01

    ------------------------------------------------
       NWT REQUIRED            3 OUTER ITERATIONS 
       AND A TOTAL OF          5 INNER ITERATIONS.
    ------------------------------------------------

 NO OUTPUT CONTROL FOR STRESS PERIOD   12   TIME STEP   86
 ..........LAKE  1 IS DRY..........
 
 SOLVING FOR HEAD 
                                                   Max.-Head-Change                         Max.-Flux-Residual
  Residual-Control   Outer-Iter.   Inner-Iter.     Column Row Layer    Maximum-Head-Change  Column Row Layer    Maximum-Flux-Residual          L2-NORM 
          0                 1           2             3    2     2      -0.5738112362E-01       3    2    2        -0.1497231077E+01      0.3744367368E+01
          0                 2           2             3    2     2       0.5528349745E-02       3    2    2         0.1497205295E+00      0.3580877145E+00
          0                 3           1             3    2     2      -0.3195904948E-03       3    2    2        -0.8983253495E-02      0.2094206726E-01

    ------------------------------------------------
       NWT REQUIRED            3 OUTER ITERATIONS 
       AND A TOTAL OF          5 INNER ITERATIONS.
    ------------------------------------------------

 NO OUTPUT CONTROL FOR STRESS PERIOD   12   TIME STEP   87
 ..........LAKE  1 IS DRY..........
 
 SOLVING FOR HEAD 
                                                   Max.-Head-Change                         Max.-Flux-Residual
  Residual-Control   Outer-Iter.   Inner-Iter.     Column Row Layer    Maximum-Head-Change  Column Row Layer    Maximum-Flux-Residual          L2-NORM 
          0                 1           2             3    2     2      -0.5710654184E-01       3    2    2        -0.1490066678E+01      0.3725317692E+01
          0                 2           2             3    2     2       0.5501893584E-02       3    2    2         0.1490041093E+00      0.3562560954E+00
          0                 3           1             3    2     2      -0.3180609009E-03       3    2    2        -0.8940268110E-02      0.2083516044E-01

    ------------------------------------------------
       NWT REQUIRED            3 OUTER ITERATIONS 
       AND A TOTAL OF          5 INNER ITERATIONS.
    ------------------------------------------------

 NO OUTPUT CONTROL FOR STRESS PERIOD   12   TIME STEP   88
 ..........LAKE  1 IS DRY..........
 
 SOLVING FOR HEAD 
                                                   Max.-Head-Change                         Max.-Flux-Residual
  Residual-Control   Outer-Iter.   Inner-Iter.     Column Row Layer    Maximum-Head-Change  Column Row Layer    Maximum-Flux-Residual          L2-NORM 
          0                 1           2             3    2     2      -0.5683319080E-01       3    2    2        -0.1482933115E+01      0.3707646492E+01
          0                 2           2             3    2     2       0.5475555915E-02       3    2    2         0.1482907730E+00      0.3548022728E+00
          0                 3           1             3    2     2      -0.3165380791E-03       3    2    2        -0.8897467760E-02      0.2073196590E-01

    ------------------------------------------------
       NWT REQUIRED            3 OUTER ITERATIONS 
       AND A TOTAL OF          5 INNER ITERATIONS.
    ------------------------------------------------

 NO OUTPUT CONTROL FOR STRESS PERIOD   12   TIME STEP   89
 ..........LAKE  1 IS DRY..........
 
 SOLVING FOR HEAD 
                                                   Max.-Head-Change                         Max.-Flux-Residual
  Residual-Control   Outer-Iter.   Inner-Iter.     Column Row Layer    Maximum-Head-Change  Column Row Layer    Maximum-Flux-Residual          L2-NORM 
          0                 1           2             3    2     2      -0.5656122713E-01       3    2    2        -0.1475834548E+01      0.3690175163E+01
          0                 2           2             3    2     2       0.5449351781E-02       3    2    2         0.1475809365E+00      0.3530650430E+00
          0                 3           1             3    2     2      -0.3150230831E-03       3    2    2        -0.8854877392E-02      0.2062903526E-01

    ------------------------------------------------
       NWT REQUIRED            3 OUTER ITERATIONS 
       AND A TOTAL OF          5 INNER ITERATIONS.
    ------------------------------------------------

 NO OUTPUT CONTROL FOR STRESS PERIOD   12   TIME STEP   90
 ..........LAKE  1 IS DRY..........
 
 SOLVING FOR HEAD 
                                                   Max.-Head-Change                         Max.-Flux-Residual
  Residual-Control   Outer-Iter.   Inner-Iter.     Column Row Layer    Maximum-Head-Change  Column Row Layer    Maximum-Flux-Residual          L2-NORM 
          0                 1           2             3    2     2      -0.5629079104E-01       3    2    2        -0.1468775042E+01      0.3671822705E+01
          0                 2           2             3    2     2       0.5423295057E-02       3    2    2         0.1468750062E+00      0.3513087201E+00
          0                 3           1             3    2     2      -0.3135165406E-03       3    2    2        -0.8812521399E-02      0.2052690137E-01

    ------------------------------------------------
       NWT REQUIRED            3 OUTER ITERATIONS 
       AND A TOTAL OF          5 INNER ITERATIONS.
    ------------------------------------------------

 NO OUTPUT CONTROL FOR STRESS PERIOD   12   TIME STEP   91
 ..........LAKE  1 IS DRY..........
 
 SOLVING FOR HEAD 
                                                   Max.-Head-Change                         Max.-Flux-Residual
  Residual-Control   Outer-Iter.   Inner-Iter.     Column Row Layer    Maximum-Head-Change  Column Row Layer    Maximum-Flux-Residual          L2-NORM 
          0                 1           2             3    2     2      -0.5602168160E-01       3    2    2        -0.1461749058E+01      0.3653866147E+01
          0                 2           2             3    2     2       0.5397365574E-02       3    2    2         0.1461724284E+00      0.3495916954E+00
          0                 3           1             3    2     2      -0.3120173378E-03       3    2    2        -0.8770366546E-02      0.2042576480E-01

    ------------------------------------------------
       NWT REQUIRED            3 OUTER ITERATIONS 
       AND A TOTAL OF          5 INNER ITERATIONS.
    ------------------------------------------------

 NO OUTPUT CONTROL FOR STRESS PERIOD   12   TIME STEP   92
 ..........LAKE  1 IS DRY..........
 
 SOLVING FOR HEAD 
                                                   Max.-Head-Change                         Max.-Flux-Residual
  Residual-Control   Outer-Iter.   Inner-Iter.     Column Row Layer    Maximum-Head-Change  Column Row Layer    Maximum-Flux-Residual          L2-NORM 
          0                 1           2             3    2     2      -0.5575404267E-01       3    2    2        -0.1454760569E+01      0.3636785913E+01
          0                 2           2             3    2     2       0.5371578011E-02       3    2    2         0.1454736001E+00      0.3479134569E+00
          0                 3           1             3    2     2      -0.3105263858E-03       3    2    2        -0.8728436667E-02      0.2032653217E-01

    ------------------------------------------------
       NWT REQUIRED            3 OUTER ITERATIONS 
       AND A TOTAL OF          5 INNER ITERATIONS.
    ------------------------------------------------

 NO OUTPUT CONTROL FOR STRESS PERIOD   12   TIME STEP   93
 ..........LAKE  1 IS DRY..........
 
 SOLVING FOR HEAD 
                                                   Max.-Head-Change                         Max.-Flux-Residual
  Residual-Control   Outer-Iter.   Inner-Iter.     Column Row Layer    Maximum-Head-Change  Column Row Layer    Maximum-Flux-Residual          L2-NORM 
          0                 1           2             3    2     2      -0.5548789641E-01       3    2    2        -0.1447810232E+01      0.3619260098E+01
          0                 2           2             3    2     2       0.5345934203E-02       3    2    2         0.1447785873E+00      0.3462351438E+00
          0                 3           1             3    2     2      -0.3090437231E-03       3    2    2        -0.8686735717E-02      0.2022798032E-01

    ------------------------------------------------
       NWT REQUIRED            3 OUTER ITERATIONS 
       AND A TOTAL OF          5 INNER ITERATIONS.
    ------------------------------------------------

 NO OUTPUT CONTROL FOR STRESS PERIOD   12   TIME STEP   94
 ..........LAKE  1 IS DRY..........
 
 SOLVING FOR HEAD 
                                                   Max.-Head-Change                         Max.-Flux-Residual
  Residual-Control   Outer-Iter.   Inner-Iter.     Column Row Layer    Maximum-Head-Change  Column Row Layer    Maximum-Flux-Residual          L2-NORM 
          0                 1           2             3    2     2      -0.5522338041E-01       3    2    2        -0.1440901680E+01      0.3602435959E+01
          0                 2           2             3    2     2       0.5320447474E-02       3    2    2         0.1440877530E+00      0.3445794931E+00
          0                 3           1             3    2     2      -0.3075701344E-03       3    2    2        -0.8645285476E-02      0.2013023815E-01

    ------------------------------------------------
       NWT REQUIRED            3 OUTER ITERATIONS 
       AND A TOTAL OF          5 INNER ITERATIONS.
    ------------------------------------------------

 NO OUTPUT CONTROL FOR STRESS PERIOD   12   TIME STEP   95
 ..........LAKE  1 IS DRY..........
 
 SOLVING FOR HEAD 
                                                   Max.-Head-Change                         Max.-Flux-Residual
  Residual-Control   Outer-Iter.   Inner-Iter.     Column Row Layer    Maximum-Head-Change  Column Row Layer    Maximum-Flux-Residual          L2-NORM 
          0                 1           2             3    2     2      -0.5496027669E-01       3    2    2        -0.1434029329E+01      0.3585222243E+01
          0                 2           2             3    2     2       0.5295096649E-02       3    2    2         0.1434005388E+00      0.3429171347E+00
          0                 3           1             3    2     2      -0.3061043275E-03       3    2    2        -0.8604052440E-02      0.2003254396E-01

    ------------------------------------------------
       NWT REQUIRED            3 OUTER ITERATIONS 
       AND A TOTAL OF          5 INNER ITERATIONS.
    ------------------------------------------------

 NO OUTPUT CONTROL FOR STRESS PERIOD   12   TIME STEP   96
 ..........LAKE  1 IS DRY..........
 
 SOLVING FOR HEAD 
                                                   Max.-Head-Change                         Max.-Flux-Residual
  Residual-Control   Outer-Iter.   Inner-Iter.     Column Row Layer    Maximum-Head-Change  Column Row Layer    Maximum-Flux-Residual          L2-NORM 
          0                 1           2             3    2     2      -0.5469871815E-01       3    2    2        -0.1427196677E+01      0.3568021625E+01
          0                 2           2             3    2     2       0.5269894727E-02       3    2    2         0.1427172947E+00      0.3412763328E+00
          0                 3           1             3    2     2      -0.3046472297E-03       3    2    2        -0.8563057601E-02      0.1993712229E-01

    ------------------------------------------------
       NWT REQUIRED            3 OUTER ITERATIONS 
       AND A TOTAL OF          5 INNER ITERATIONS.
    ------------------------------------------------

 NO OUTPUT CONTROL FOR STRESS PERIOD   12   TIME STEP   97
 ..........LAKE  1 IS DRY..........
 
 SOLVING FOR HEAD 
                                                   Max.-Head-Change                         Max.-Flux-Residual
  Residual-Control   Outer-Iter.   Inner-Iter.     Column Row Layer    Maximum-Head-Change  Column Row Layer    Maximum-Flux-Residual          L2-NORM 
          0                 1           2             3    2     2      -0.5443883543E-01       3    2    2        -0.1420407171E+01      0.3551238475E+01
          0                 2           2             3    2     2       0.5244854232E-02       3    2    2         0.1420383651E+00      0.3396498721E+00
          0                 3           1             3    2     2      -0.3031994230E-03       3    2    2        -0.8522321639E-02      0.1984179421E-01

    ------------------------------------------------
       NWT REQUIRED            3 OUTER ITERATIONS 
       AND A TOTAL OF          5 INNER ITERATIONS.
    ------------------------------------------------

 NO OUTPUT CONTROL FOR STRESS PERIOD   12   TIME STEP   98
 ..........LAKE  1 IS DRY..........
 
 SOLVING FOR HEAD 
                                                   Max.-Head-Change                         Max.-Flux-Residual
  Residual-Control   Outer-Iter.   Inner-Iter.     Column Row Layer    Maximum-Head-Change  Column Row Layer    Maximum-Flux-Residual          L2-NORM 
          0                 1           2             3    2     2      -0.5418041090E-01       3    2    2        -0.1413655052E+01      0.3534675481E+01
          0                 2           2             3    2     2       0.5219954174E-02       3    2    2         0.1413631743E+00      0.3380601832E+00
          0                 3           1             3    2     2      -0.3017596761E-03       3    2    2        -0.8481810006E-02      0.1974780004E-01

    ------------------------------------------------
       NWT REQUIRED            3 OUTER ITERATIONS 
       AND A TOTAL OF          5 INNER ITERATIONS.
    ------------------------------------------------

 NO OUTPUT CONTROL FOR STRESS PERIOD   12   TIME STEP   99
 ..........LAKE  1 IS DRY..........
 
 SOLVING FOR HEAD 
                                                   Max.-Head-Change                         Max.-Flux-Residual
  Residual-Control   Outer-Iter.   Inner-Iter.     Column Row Layer    Maximum-Head-Change  Column Row Layer    Maximum-Flux-Residual          L2-NORM 
          0                 1           2             3    2     2      -0.5392368148E-01       3    2    2        -0.1406946866E+01      0.3518245666E+01
          0                 2           2             3    2     2       0.5195217422E-02       3    2    2         0.1406923767E+00      0.3364763384E+00
          0                 3           1             3    2     2      -0.3003294534E-03       3    2    2        -0.8441561979E-02      0.1965517958E-01

    ------------------------------------------------
       NWT REQUIRED            3 OUTER ITERATIONS 
       AND A TOTAL OF          5 INNER ITERATIONS.
    ------------------------------------------------

 NO OUTPUT CONTROL FOR STRESS PERIOD   12   TIME STEP  100
 ..........LAKE  1 IS DRY..........
 
 SOLVING FOR HEAD 
                                                   Max.-Head-Change                         Max.-Flux-Residual
  Residual-Control   Outer-Iter.   Inner-Iter.     Column Row Layer    Maximum-Head-Change  Column Row Layer    Maximum-Flux-Residual          L2-NORM 
          0                 1           2             3    2     2      -0.5366843070E-01       3    2    2        -0.1400276574E+01      0.3502486646E+01
          0                 2           2             3    2     2       0.5170623104E-02       3    2    2         0.1400253686E+00      0.3349900486E+00
          0                 3           1             3    2     2      -0.2989073880E-03       3    2    2        -0.8401541299E-02      0.1956116069E-01

    ------------------------------------------------
       NWT REQUIRED            3 OUTER ITERATIONS 
       AND A TOTAL OF          5 INNER ITERATIONS.
    ------------------------------------------------

 NO OUTPUT CONTROL FOR STRESS PERIOD   12   TIME STEP  101
 ..........LAKE  1 IS DRY..........
 
 SOLVING FOR HEAD 
                                                   Max.-Head-Change                         Max.-Flux-Residual
  Residual-Control   Outer-Iter.   Inner-Iter.     Column Row Layer    Maximum-Head-Change  Column Row Layer    Maximum-Flux-Residual          L2-NORM 
          0                 1           2             3    2     2      -0.5341488922E-01       3    2    2        -0.1393650741E+01      0.3486623361E+01
          0                 2           2             3    2     2       0.5146193434E-02       3    2    2         0.1393628063E+00      0.3335299108E+00
          0                 3           1             3    2     2      -0.2974949058E-03       3    2    2        -0.8361787364E-02      0.1951969384E-01

    ------------------------------------------------
       NWT REQUIRED            3 OUTER ITERATIONS 
       AND A TOTAL OF          5 INNER ITERATIONS.
    ------------------------------------------------

 NO OUTPUT CONTROL FOR STRESS PERIOD   12   TIME STEP  102
 ..........LAKE  1 IS DRY..........
 
 SOLVING FOR HEAD 
                                                   Max.-Head-Change                         Max.-Flux-Residual
  Residual-Control   Outer-Iter.   Inner-Iter.     Column Row Layer    Maximum-Head-Change  Column Row Layer    Maximum-Flux-Residual          L2-NORM 
          0                 1           2             3    2     2      -0.5316294610E-01       3    2    2        -0.1387066218E+01      0.3471308612E+01
          0                 2           2             3    2     2       0.5121917758E-02       3    2    2         0.1387043749E+00      0.3320826361E+00
          0                 3           1             3    2     2      -0.2960913118E-03       3    2    2        -0.8322281306E-02      0.1943172981E-01

    ------------------------------------------------
       NWT REQUIRED            3 OUTER ITERATIONS 
       AND A TOTAL OF          5 INNER ITERATIONS.
    ------------------------------------------------

 NO OUTPUT CONTROL FOR STRESS PERIOD   12   TIME STEP  103
 ..........LAKE  1 IS DRY..........
 
 SOLVING FOR HEAD 
                                                   Max.-Head-Change                         Max.-Flux-Residual
  Residual-Control   Outer-Iter.   Inner-Iter.     Column Row Layer    Maximum-Head-Change  Column Row Layer    Maximum-Flux-Residual          L2-NORM 
          0                 1           2             3    2     2      -0.5291261037E-01       3    2    2        -0.1380523168E+01      0.3456150451E+01
          0                 2           2             3    2     2       0.5097796916E-02       3    2    2         0.1380500909E+00      0.3305876396E+00
          0                 3           1             3    2     2      -0.2946966790E-03       3    2    2        -0.8283024080E-02      0.1934195646E-01

    ------------------------------------------------
       NWT REQUIRED            3 OUTER ITERATIONS 
       AND A TOTAL OF          5 INNER ITERATIONS.
    ------------------------------------------------

 NO OUTPUT CONTROL FOR STRESS PERIOD   12   TIME STEP  104
 ..........LAKE  1 IS DRY..........
 
 SOLVING FOR HEAD 
                                                   Max.-Head-Change                         Max.-Flux-Residual
  Residual-Control   Outer-Iter.   Inner-Iter.     Column Row Layer    Maximum-Head-Change  Column Row Layer    Maximum-Flux-Residual          L2-NORM 
          0                 1           2             3    2     2      -0.5266388048E-01       3    2    2        -0.1374021829E+01      0.3441016541E+01
          0                 2           2             3    2     2       0.5073830781E-02       3    2    2         0.1373999778E+00      0.3290897084E+00
          0                 3           1             3    2     2      -0.2933109781E-03       3    2    2        -0.8244017109E-02      0.1925270145E-01

    ------------------------------------------------
       NWT REQUIRED            3 OUTER ITERATIONS 
       AND A TOTAL OF          5 INNER ITERATIONS.
    ------------------------------------------------

 NO OUTPUT CONTROL FOR STRESS PERIOD   12   TIME STEP  105
 ..........LAKE  1 IS DRY..........
 
 SOLVING FOR HEAD 
                                                   Max.-Head-Change                         Max.-Flux-Residual
  Residual-Control   Outer-Iter.   Inner-Iter.     Column Row Layer    Maximum-Head-Change  Column Row Layer    Maximum-Flux-Residual          L2-NORM 
          0                 1           2             3    2     2      -0.5241675822E-01       3    2    2        -0.1367562158E+01      0.3425775225E+01
          0                 2           2             3    2     2       0.5050019484E-02       3    2    2         0.1367540315E+00      0.3275995592E+00
          0                 3           1             3    2     2      -0.2919341881E-03       3    2    2        -0.8205260145E-02      0.1916418813E-01

    ------------------------------------------------
       NWT REQUIRED            3 OUTER ITERATIONS 
       AND A TOTAL OF          5 INNER ITERATIONS.
    ------------------------------------------------

 NO OUTPUT CONTROL FOR STRESS PERIOD   12   TIME STEP  106
 ..........LAKE  1 IS DRY..........
 
 SOLVING FOR HEAD 
                                                   Max.-Head-Change                         Max.-Flux-Residual
  Residual-Control   Outer-Iter.   Inner-Iter.     Column Row Layer    Maximum-Head-Change  Column Row Layer    Maximum-Flux-Residual          L2-NORM 
          0                 1           2             3    2     2      -0.5217135939E-01       3    2    2        -0.1361147244E+01      0.3410704349E+01
          0                 2           2             3    2     2       0.5026374240E-02       3    2    2         0.1361125607E+00      0.3261251514E+00
          0                 3           1             3    2     2      -0.2905669996E-03       3    2    2        -0.8166771707E-02      0.1907649302E-01

    ------------------------------------------------
       NWT REQUIRED            3 OUTER ITERATIONS 
       AND A TOTAL OF          5 INNER ITERATIONS.
    ------------------------------------------------

 NO OUTPUT CONTROL FOR STRESS PERIOD   12   TIME STEP  107
 ..........LAKE  1 IS DRY..........
 
 SOLVING FOR HEAD 
                                                   Max.-Head-Change                         Max.-Flux-Residual
  Residual-Control   Outer-Iter.   Inner-Iter.     Column Row Layer    Maximum-Head-Change  Column Row Layer    Maximum-Flux-Residual          L2-NORM 
          0                 1           2             3    2     2      -0.5192744886E-01       3    2    2        -0.1354770967E+01      0.3395815728E+01
          0                 2           2             3    2     2       0.5003613949E-02       3    2    2         0.1354749535E+00      0.3251045459E+00
          0                 3           1             3    2     2      -0.2893412095E-03       3    2    2        -0.8128514583E-02      0.1913108711E-01

    ------------------------------------------------
       NWT REQUIRED            3 OUTER ITERATIONS 
       AND A TOTAL OF          5 INNER ITERATIONS.
    ------------------------------------------------

 NO OUTPUT CONTROL FOR STRESS PERIOD   12   TIME STEP  108
 ..........LAKE  1 IS DRY..........
 
 SOLVING FOR HEAD 
                                                   Max.-Head-Change                         Max.-Flux-Residual
  Residual-Control   Outer-Iter.   Inner-Iter.     Column Row Layer    Maximum-Head-Change  Column Row Layer    Maximum-Flux-Residual          L2-NORM 
          0                 1           2             3    2     2      -0.5168394866E-01       3    2    2        -0.1348422023E+01      0.3380748278E+01
          0                 2           2             3    2     2       0.4980383621E-02       3    2    2         0.1348400751E+00      0.3243667139E+00
          0                 3           1             3    2     2      -0.2879978743E-03       3    2    2        -0.8090421589E-02      0.1908780049E-01

    ------------------------------------------------
       NWT REQUIRED            3 OUTER ITERATIONS 
       AND A TOTAL OF          5 INNER ITERATIONS.
    ------------------------------------------------

 NO OUTPUT CONTROL FOR STRESS PERIOD   12   TIME STEP  109
 ..........LAKE  1 IS DRY..........
 
 SOLVING FOR HEAD 
                                                   Max.-Head-Change                         Max.-Flux-Residual
  Residual-Control   Outer-Iter.   Inner-Iter.     Column Row Layer    Maximum-Head-Change  Column Row Layer    Maximum-Flux-Residual          L2-NORM 
          0                 1           2             3    2     2      -0.5144098567E-01       3    2    2        -0.1342091812E+01      0.3365974592E+01
          0                 2           2             3    2     2       0.4956971271E-02       3    2    2         0.1342070684E+00      0.3229217850E+00
          0                 3           1             3    2     2      -0.2866440185E-03       3    2    2        -0.8052441066E-02      0.1899948192E-01

    ------------------------------------------------
       NWT REQUIRED            3 OUTER ITERATIONS 
       AND A TOTAL OF          5 INNER ITERATIONS.
    ------------------------------------------------

 NO OUTPUT CONTROL FOR STRESS PERIOD   12   TIME STEP  110
 ..........LAKE  1 IS DRY..........
 
 SOLVING FOR HEAD 
                                                   Max.-Head-Change                         Max.-Flux-Residual
  Residual-Control   Outer-Iter.   Inner-Iter.     Column Row Layer    Maximum-Head-Change  Column Row Layer    Maximum-Flux-Residual          L2-NORM 
          0                 1           2             3    2     2      -0.5119884570E-01       3    2    2        -0.1335781828E+01      0.3351031137E+01
          0                 2           2             3    2     2       0.4933638240E-02       3    2    2         0.1335760849E+00      0.3214702760E+00
          0                 3           1             3    2     2      -0.2852947492E-03       3    2    2        -0.8014581931E-02      0.1891176575E-01

    ------------------------------------------------
       NWT REQUIRED            3 OUTER ITERATIONS 
       AND A TOTAL OF          5 INNER ITERATIONS.
    ------------------------------------------------

 NO OUTPUT CONTROL FOR STRESS PERIOD   12   TIME STEP  111
 ..........LAKE  1 IS DRY..........
 
 SOLVING FOR HEAD 
                                                   Max.-Head-Change                         Max.-Flux-Residual
  Residual-Control   Outer-Iter.   Inner-Iter.     Column Row Layer    Maximum-Head-Change  Column Row Layer    Maximum-Flux-Residual          L2-NORM 
          0                 1           2             3    2     2      -0.5095768913E-01       3    2    2        -0.1329496239E+01      0.3336405037E+01
          0                 2           2             3    2     2       0.4910399978E-02       3    2    2         0.1329475410E+00      0.3200257009E+00
          0                 3           1             3    2     2      -0.2839509602E-03       3    2    2        -0.7976869174E-02      0.1882497977E-01

    ------------------------------------------------
       NWT REQUIRED            3 OUTER ITERATIONS 
       AND A TOTAL OF          5 INNER ITERATIONS.
    ------------------------------------------------

 NO OUTPUT CONTROL FOR STRESS PERIOD   12   TIME STEP  112
 ..........LAKE  1 IS DRY..........
 
 SOLVING FOR HEAD 
                                                   Max.-Head-Change                         Max.-Flux-Residual
  Residual-Control   Outer-Iter.   Inner-Iter.     Column Row Layer    Maximum-Head-Change  Column Row Layer    Maximum-Flux-Residual          L2-NORM 
          0                 1           2             3    2     2      -0.5071732892E-01       3    2    2        -0.1323230096E+01      0.3321926344E+01
          0                 2           2             3    2     2       0.4887238466E-02       3    2    2         0.1323209420E+00      0.3185955780E+00
          0                 3           1             3    2     2      -0.2826116092E-03       3    2    2        -0.7939273099E-02      0.1873914876E-01

    ------------------------------------------------
       NWT REQUIRED            3 OUTER ITERATIONS 
       AND A TOTAL OF          5 INNER ITERATIONS.
    ------------------------------------------------

 NO OUTPUT CONTROL FOR STRESS PERIOD   12   TIME STEP  113
 ..........LAKE  1 IS DRY..........
 
 SOLVING FOR HEAD 
                                                   Max.-Head-Change                         Max.-Flux-Residual
  Residual-Control   Outer-Iter.   Inner-Iter.     Column Row Layer    Maximum-Head-Change  Column Row Layer    Maximum-Flux-Residual          L2-NORM 
          0                 1           2             3    2     2      -0.5047803875E-01       3    2    2        -0.1316990689E+01      0.3307541576E+01
          0                 2           2             3    2     2       0.4864180072E-02       3    2    2         0.1316970169E+00      0.3171863694E+00
          0                 3           1             3    2     2      -0.2812782211E-03       3    2    2        -0.7901837458E-02      0.1865625223E-01

    ------------------------------------------------
       NWT REQUIRED            3 OUTER ITERATIONS 
       AND A TOTAL OF          5 INNER ITERATIONS.
    ------------------------------------------------

 NO OUTPUT CONTROL FOR STRESS PERIOD   12   TIME STEP  114
 ..........LAKE  1 IS DRY..........
 
 SOLVING FOR HEAD 
                                                   Max.-Head-Change                         Max.-Flux-Residual
  Residual-Control   Outer-Iter.   Inner-Iter.     Column Row Layer    Maximum-Head-Change  Column Row Layer    Maximum-Flux-Residual          L2-NORM 
          0                 1           2             3    2     2      -0.5023973848E-01       3    2    2        -0.1310776014E+01      0.3293480365E+01
          0                 2           2             3    2     2       0.4841217075E-02       3    2    2         0.1310755651E+00      0.3157902699E+00
          0                 3           1             3    2     2      -0.2799503492E-03       3    2    2        -0.7864550215E-02      0.1857045701E-01

    ------------------------------------------------
       NWT REQUIRED            3 OUTER ITERATIONS 
       AND A TOTAL OF          5 INNER ITERATIONS.
    ------------------------------------------------

 NO OUTPUT CONTROL FOR STRESS PERIOD   12   TIME STEP  115
 ..........LAKE  1 IS DRY..........
 
 SOLVING FOR HEAD 
                                                   Max.-Head-Change                         Max.-Flux-Residual
  Residual-Control   Outer-Iter.   Inner-Iter.     Column Row Layer    Maximum-Head-Change  Column Row Layer    Maximum-Flux-Residual          L2-NORM 
          0                 1           2             3    2     2      -0.5000246881E-01       3    2    2        -0.1304587025E+01      0.3279525233E+01
          0                 2           2             3    2     2       0.4818353399E-02       3    2    2         0.1304566823E+00      0.3144068736E+00
          0                 3           1             3    2     2      -0.2786282212E-03       3    2    2        -0.7827417114E-02      0.1848724939E-01

    ------------------------------------------------
       NWT REQUIRED            3 OUTER ITERATIONS 
       AND A TOTAL OF          5 INNER ITERATIONS.
    ------------------------------------------------

 NO OUTPUT CONTROL FOR STRESS PERIOD   12   TIME STEP  116
 ..........LAKE  1 IS DRY..........
 
 SOLVING FOR HEAD 
                                                   Max.-Head-Change                         Max.-Flux-Residual
  Residual-Control   Outer-Iter.   Inner-Iter.     Column Row Layer    Maximum-Head-Change  Column Row Layer    Maximum-Flux-Residual          L2-NORM 
          0                 1           2             3    2     2      -0.4976625646E-01       3    2    2        -0.1298424780E+01      0.3265667958E+01
          0                 2           2             3    2     2       0.4795591612E-02       3    2    2         0.1298404739E+00      0.3130388567E+00
          0                 3           1             3    2     2      -0.2773119849E-03       3    2    2        -0.7790444471E-02      0.1840498745E-01

    ------------------------------------------------
       NWT REQUIRED            3 OUTER ITERATIONS 
       AND A TOTAL OF          5 INNER ITERATIONS.
    ------------------------------------------------

 NO OUTPUT CONTROL FOR STRESS PERIOD   12   TIME STEP  117
 ..........LAKE  1 IS DRY..........
 
 SOLVING FOR HEAD 
                                                   Max.-Head-Change                         Max.-Flux-Residual
  Residual-Control   Outer-Iter.   Inner-Iter.     Column Row Layer    Maximum-Head-Change  Column Row Layer    Maximum-Flux-Residual          L2-NORM 
          0                 1           2             3    2     2      -0.4953124506E-01       3    2    2        -0.1292293002E+01      0.3252087560E+01
          0                 2           2             3    2     2       0.4771328827E-02       3    2    2         0.1292273124E+00      0.3107105880E+00
          0                 3           1             3    2     2      -0.2759089762E-03       3    2    2        -0.7753655520E-02      0.1826331513E-01

    ------------------------------------------------
       NWT REQUIRED            3 OUTER ITERATIONS 
       AND A TOTAL OF          5 INNER ITERATIONS.
    ------------------------------------------------

 NO OUTPUT CONTROL FOR STRESS PERIOD   12   TIME STEP  118
 ..........LAKE  1 IS DRY..........
 
 SOLVING FOR HEAD 
                                                   Max.-Head-Change                         Max.-Flux-Residual
  Residual-Control   Outer-Iter.   Inner-Iter.     Column Row Layer    Maximum-Head-Change  Column Row Layer    Maximum-Flux-Residual          L2-NORM 
          0                 1           2             3    2     2      -0.4930282598E-01       3    2    2        -0.1286232828E+01      0.3239854052E+01
          0                 2           2             3    2     2       0.4750935367E-02       3    2    2         0.1286213331E+00      0.3104686238E+00
          0                 3           1             3    2     2      -0.2747296604E-03       3    2    2        -0.7717295548E-02      0.1825542892E-01

    ------------------------------------------------
       NWT REQUIRED            3 OUTER ITERATIONS 
       AND A TOTAL OF          5 INNER ITERATIONS.
    ------------------------------------------------

 NO OUTPUT CONTROL FOR STRESS PERIOD   12   TIME STEP  119
 ..........LAKE  1 IS DRY..........
 
 SOLVING FOR HEAD 
                                                   Max.-Head-Change                         Max.-Flux-Residual
  Residual-Control   Outer-Iter.   Inner-Iter.     Column Row Layer    Maximum-Head-Change  Column Row Layer    Maximum-Flux-Residual          L2-NORM 
          0                 1           2             3    2     2      -0.4907582570E-01       3    2    2        -0.1280256744E+01      0.3227771676E+01
          0                 2           2             3    2     2       0.4729061617E-02       3    2    2         0.1280237523E+00      0.3092727813E+00
          0                 3           1             3    2     2      -0.2734647728E-03       3    2    2        -0.7681440449E-02      0.1817358371E-01

    ------------------------------------------------
       NWT REQUIRED            3 OUTER ITERATIONS 
       AND A TOTAL OF          5 INNER ITERATIONS.
    ------------------------------------------------

 NO OUTPUT CONTROL FOR STRESS PERIOD   12   TIME STEP  120



 STREAM LISTING     PERIOD     12   STEP      120

 LAYER ROW COL. STREAM  RCH.  FLOW INTO     FLOW TO   FLOW OUT OF   OVRLND.     DIRECT     STREAM       STREAM     STREAM     STREAM   STREAMBED  STREAMBED
                SEG.NO.  NO.  STRM. RCH.    AQUIFER    STRM. RCH.    RUNOFF     PRECIP       ET          HEAD       DEPTH      WIDTH   CONDCTNC.   GRADIENT

   2    1    1     1     1    2.5000E+00  6.9073E-01   1.8093E+00  0.000E+00  0.000E+00  0.000E+00  1.09361E+03  5.644E-01  4.306E+00  1.938E-01  1.188E+00
   2    2    2     1     2    1.8093E+00  9.1724E-01   8.9203E-01  0.000E+00  0.000E+00  0.000E+00  1.08852E+03  4.592E-01  3.788E+00  2.652E-01  1.153E+00
   2    3    3     1     3    8.9203E-01  6.1141E-01   2.8062E-01  0.000E+00  0.000E+00  0.000E+00  1.08270E+03  2.785E-01  3.108E+00  1.865E-01  1.093E+00
   2    3    4     1     4    2.8062E-01  1.9077E-01   8.9854E-02  0.000E+00  0.000E+00  0.000E+00  1.07750E+03  9.262E-02  1.111E+00  6.168E-02  1.031E+00
   2    4    5     2     1    0.0000E+00  0.0000E+00   0.0000E+00  0.000E+00  0.000E+00  0.000E+00  1.07193E+03  0.000E+00  1.200E+01  7.800E-01  1.000E+00
   2    5    6     2     2    0.0000E+00  0.0000E+00   0.0000E+00  0.000E+00  0.000E+00  0.000E+00  1.06651E+03  0.000E+00  1.200E+01  6.000E-01  1.000E+00
   2    6    6     2     3    0.0000E+00  0.0000E+00   0.0000E+00  0.000E+00  0.000E+00  0.000E+00  1.06179E+03  0.000E+00  1.200E+01  6.000E-01  1.000E+00
   2    7    6     2     4    0.0000E+00  0.0000E+00   0.0000E+00  0.000E+00  0.000E+00  0.000E+00  1.05708E+03  0.000E+00  1.200E+01  6.000E-01  1.000E+00
   2    8    6     2     5    0.0000E+00  0.0000E+00   0.0000E+00  0.000E+00  0.000E+00  0.000E+00  1.05236E+03  0.000E+00  1.200E+01  6.000E-01  1.000E+00
   2    3    5     3     1    8.9854E-02  8.9854E-02   0.0000E+00  0.000E+00  0.000E+00  0.000E+00  1.07555E+03  0.000E+00  9.636E+00  7.227E-01  1.955E+00
   2    3    6     3     2    0.0000E+00  0.0000E+00   0.0000E+00  0.000E+00  0.000E+00  0.000E+00  1.07091E+03  0.000E+00  8.909E+00  6.682E-01  1.000E+00
   2    3    7     3     3    0.0000E+00  0.0000E+00   0.0000E+00  0.000E+00  0.000E+00  0.000E+00  1.06832E+03  0.000E+00  8.218E+00  5.547E-01  1.000E+00
   2    4    8     3     4    0.0000E+00  0.0000E+00   0.0000E+00  0.000E+00  0.000E+00  0.000E+00  1.06545E+03  0.000E+00  7.455E+00  6.709E-01  1.000E+00
   2    5    8     3     5    0.0000E+00  0.0000E+00   0.0000E+00  0.000E+00  0.000E+00  0.000E+00  1.06245E+03  0.000E+00  6.655E+00  4.991E-01  1.000E+00
   2    6    8     3     6    0.0000E+00  0.0000E+00   0.0000E+00  0.000E+00  0.000E+00  0.000E+00  1.06055E+03  0.000E+00  6.145E+00  1.844E-01  1.000E+00
   2    5   10     4     1    1.0000E+01  9.0525E-01   9.0947E+00  0.000E+00  0.000E+00  0.000E+00  1.07835E+03  6.210E-01  1.000E+01  2.500E-01  1.207E+00
   2    5    9     4     2    9.0947E+00  1.7835E+00   7.3113E+00  0.000E+00  0.000E+00  0.000E+00  1.07148E+03  5.670E-01  1.000E+01  5.000E-01  1.189E+00
   2    6    8     4     3    7.3113E+00  1.2257E+00   6.0855E+00  0.000E+00  0.000E+00  0.000E+00  1.06368E+03  5.021E-01  1.000E+01  3.500E-01  1.167E+00
   2    6    8     5     1    6.0855E+00  1.4716E+00   4.6139E+00  0.000E+00  0.000E+00  0.000E+00  1.05854E+03  5.396E-01  1.039E+01  4.158E-01  1.180E+00
   2    7    7     5     2    4.6139E+00  1.4897E+00   3.1242E+00  0.000E+00  0.000E+00  0.000E+00  1.05398E+03  4.817E-01  8.557E+00  4.279E-01  1.161E+00
   2    8    7     5     3    3.1242E+00  8.2855E-01   2.2957E+00  0.000E+00  0.000E+00  0.000E+00  1.04968E+03  4.253E-01  6.911E+00  2.419E-01  1.142E+00
   2    8    6     5     4    2.2957E+00  4.9455E-01   1.8011E+00  0.000E+00  0.000E+00  0.000E+00  1.04664E+03  3.856E-01  5.843E+00  1.461E-01  1.129E+00
   2    9    6     6     1    1.8011E+00  1.8011E+00   0.0000E+00  0.000E+00  0.000E+00  0.000E+00  1.04278E+03  5.669E-02  1.200E+01  6.000E-01  1.019E+00
   2   10    7     6     2    0.0000E+00  0.0000E+00   0.0000E+00  0.000E+00  0.000E+00  0.000E+00  1.03818E+03  0.000E+00  1.200E+01  6.000E-01  1.000E+00
   2   11    7     6     3    0.0000E+00  0.0000E+00   0.0000E+00  0.000E+00  0.000E+00  0.000E+00  1.03364E+03  0.000E+00  1.200E+01  6.000E-01  9.430E-01
   2   12    7     6     4    0.0000E+00  0.0000E+00   0.0000E+00  0.000E+00  0.000E+00  0.000E+00  1.02909E+03  0.000E+00  1.200E+01  6.000E-01  1.710E-01
   2   13    7     6     5    0.0000E+00 -7.6486E-01   7.6486E-01  0.000E+00  0.000E+00  0.000E+00  1.02601E+03  9.943E-02  1.200E+01  2.400E-01 -1.062E+00
   2   14    9     7     1    1.5000E+02  2.9616E+00   1.4704E+02  0.000E+00  0.000E+00  0.000E+00  1.03986E+03  2.283E+00  5.528E+01  5.591E+00  1.766E-01
   2   13    8     7     2    1.4704E+02  3.8663E+00   1.4317E+02  0.000E+00  0.000E+00  0.000E+00  1.03477E+03  2.265E+00  5.519E+01  6.140E+00  2.099E-01
   2   13    7     7     3    1.4317E+02  2.6283E+00   1.4054E+02  0.000E+00  0.000E+00  0.000E+00  1.02967E+03  2.248E+00  5.511E+01  5.573E+00  1.572E-01
   2   13    6     8     1    1.4131E+02  3.9240E-01   1.4094E+02  1.966E-02  0.000E+00  0.000E+00  1.02463E+03  2.753E+00  3.992E+01  4.068E+00  3.215E-02
   2   13    5     8     2    1.4094E+02 -3.0146E+00   1.4397E+02  1.966E-02  0.000E+00  0.000E+00  1.01839E+03  2.763E+00  4.006E+01  4.082E+00 -2.462E-01
   2   13    4     8     3    1.4397E+02 -5.8688E+00   1.4986E+02  1.966E-02  0.000E+00  0.000E+00  1.01217E+03  2.795E+00  4.053E+01  4.130E+00 -4.737E-01
   2   13    3     8     4    1.4986E+02 -6.2090E+00   1.5609E+02  1.966E-02  0.000E+00  0.000E+00  1.00596E+03  2.838E+00  4.115E+01  4.193E+00 -4.936E-01
   2   13    2     8     5    1.5609E+02 -3.5286E+00   1.5964E+02  1.966E-02  0.000E+00  0.000E+00  9.99746E+02  2.871E+00  4.163E+01  4.243E+00 -2.772E-01
   2   13    1     8     6    1.5964E+02 -2.1600E+00   1.6181E+02  1.180E-02  0.000E+00  0.000E+00  9.94766E+02  2.891E+00  4.192E+01  2.563E+00 -2.809E-01
   2    4    5     9     1    0.0000E+00  0.0000E+00   0.0000E+00  0.000E+00  0.000E+00  0.000E+00  1.06000E+03  0.000E+00  2.000E+01  2.000E-03  1.000E+00
   2    4    5    10     1    0.0000E+00  0.0000E+00   0.0000E+00  0.000E+00  0.000E+00  0.000E+00  1.08000E+03  0.000E+00  2.000E+01  2.000E-03  1.000E+00



 ..........LAKE  1 IS DRY..........


UNSATURATED ZONE PACKAGE VOLUMETRIC BUDGET FOR  TIME STEP   120 STRESS PERIOD   12
  ------------------------------------------------------------------------------



     CUMULATIVE VOLUMES      L**3       RATES FOR THIS TIME STEP      L**3/T
     ------------------                 ------------------------

           IN:                                      IN:
           ---                                      ---
        INFILTRATION =  1807367173.2090          INFILTRATION =           8.4454

          OUT:                                     OUT:
          ----                                     ----
              UZF ET =  1725592367.5380                UZF ET =           8.3359
        UZF RECHARGE =   764067277.8945          UZF RECHARGE =           0.9389

            IN - OUT =  -682292472.2235              IN - OUT =          -0.8293

          STORAGE:                                 STORAGE:
          --------                                 --------
      STORAGE CHANGE =  -681519454.2221        STORAGE CHANGE =          -0.8293

 PERCENT DISCREPANCY IS DIFFERENCE BETWEEN IN-OUT MINUS CHANGE IN STORAGE
 DIVIDED BY THE AVERAGE OF IN AND OUT TIMES 100

 PERCENT DISCREPANCY =          -0.01     PERCENT DISCREPANCY =          -0.00






1
  VOLUMETRIC BUDGET FOR ENTIRE MODEL AT END OF TIME STEP  120, STRESS PERIOD  12
  ------------------------------------------------------------------------------

     CUMULATIVE VOLUMES      L**3       RATES FOR THIS TIME STEP      L**3/T
     ------------------                 ------------------------

           IN:                                      IN:
           ---                                      ---
             STORAGE     =   756565120.0000               STORAGE     =          17.0909
       CONSTANT HEAD     =           0.0000         CONSTANT HEAD     =           0.0000
               WELLS     =           0.0000                 WELLS     =           0.0000
     HEAD DEP BOUNDS     =    10726999.0000       HEAD DEP BOUNDS     =           0.2153
      STREAM LEAKAGE     =  2582764288.0000        STREAM LEAKAGE     =          22.3486
       LAKE  SEEPAGE     =           0.0000         LAKE  SEEPAGE     =           0.0000
        UZF RECHARGE     =   764066880.0000          UZF RECHARGE     =           0.9389
               GW ET     =           0.0000                 GW ET     =           0.0000
     SURFACE LEAKAGE     =           0.0000       SURFACE LEAKAGE     =           0.0000

                TOTAL IN =  4114123264.0000                  TOTAL IN =          40.5937

          OUT:                                     OUT:
          ----                                     ----
             STORAGE     =  1841161216.0000               STORAGE     =           2.8525
       CONSTANT HEAD     =           0.0000         CONSTANT HEAD     =           0.0000
               WELLS     =   394200000.0000                 WELLS     =           0.0000
     HEAD DEP BOUNDS     =    14872236.0000       HEAD DEP BOUNDS     =           0.2891
      STREAM LEAKAGE     =   983640768.0000        STREAM LEAKAGE     =          21.5458
       LAKE  SEEPAGE     =           0.0000         LAKE  SEEPAGE     =           0.0000
        UZF RECHARGE     =           0.0000          UZF RECHARGE     =           0.0000
               GW ET     =   787576704.0000                 GW ET     =          15.7993
     SURFACE LEAKAGE     =    92603632.0000       SURFACE LEAKAGE     =           0.1056

               TOTAL OUT =  4114054912.0000                 TOTAL OUT =          40.5923

                IN - OUT =       68352.0000                  IN - OUT =       1.4000E-03

     PERCENT DISCREPANCY =           0.00         PERCENT DISCREPANCY =           0.00






         TIME SUMMARY AT END OF TIME STEP  120 IN STRESS PERIOD   12
                    SECONDS     MINUTES      HOURS       DAYS        YEARS
                    -----------------------------------------------------------
   TIME STEP LENGTH 1.75200E+05  2920.0      48.667      2.0278     5.55175E-03
 STRESS PERIOD TIME 2.10240E+07 3.50400E+05  5840.0      243.33     0.66621    
         TOTAL TIME 4.99320E+07 8.32200E+05  13870.      577.92      1.5822    
1


 Run end date and time (yyyy/mm/dd hh:mm:ss): 2023/02/27 18:43:15
 Elapsed run time: 1.292 Seconds

