                                  MODFLOW-NWT-SWR1 
      U.S. GEOLOGICAL SURVEY MODULAR FINITE-DIFFERENCE GROUNDWATER-FLOW MODEL
                            VERSION 1.2.0 03/01/2020
                    BASED ON MODFLOW-2005 VERSION 1.12.00 02/03/2017

 LIST FILE: .\output\SFR_LAK_floodplain.lst
                         UNIT    9

 OPENING .\input\SFR_LAK_floodplain.ba6
 FILE TYPE:BAS6   UNIT   75   STATUS:OLD    
 FORMAT:FORMATTED              ACCESS:SEQUENTIAL          

 OPENING .\input\SFR_LAK_floodplain.upw
 FILE TYPE:UPW   UNIT    7   STATUS:OLD    
 FORMAT:FORMATTED              ACCESS:SEQUENTIAL          

 OPENING .\input\SFR_LAK_floodplain.dis
 FILE TYPE:DIS   UNIT    8   STATUS:OLD    
 FORMAT:FORMATTED              ACCESS:SEQUENTIAL          

 OPENING .\input\SFR_LAK_floodplain.nwt
 FILE TYPE:NWT   UNIT   13   STATUS:OLD    
 FORMAT:FORMATTED              ACCESS:SEQUENTIAL          

 OPENING .\input\SFR_LAK_floodplain.oc
 FILE TYPE:OC   UNIT   14   STATUS:OLD    
 FORMAT:FORMATTED              ACCESS:SEQUENTIAL          

 OPENING .\input\SFR_LAK_floodplain.sfr
 FILE TYPE:SFR   UNIT   15   STATUS:OLD    
 FORMAT:FORMATTED              ACCESS:SEQUENTIAL          

 OPENING .\input\SFR_LAK_floodplain.wel
 FILE TYPE:WEL   UNIT   16   STATUS:OLD    
 FORMAT:FORMATTED              ACCESS:SEQUENTIAL          

 OPENING .\input\SFR_LAK_floodplain.ghb
 FILE TYPE:GHB   UNIT   17   STATUS:OLD    
 FORMAT:FORMATTED              ACCESS:SEQUENTIAL          

 OPENING .\input\SFR_LAK_floodplain.uzf
 FILE TYPE:UZF   UNIT   19   STATUS:OLD    
 FORMAT:FORMATTED              ACCESS:SEQUENTIAL          

 OPENING .\input\SFR_LAK_floodplain.gag
 FILE TYPE:GAGE   UNIT   32   STATUS:OLD    
 FORMAT:FORMATTED              ACCESS:SEQUENTIAL          

 OPENING .\input\SFR_LAK_floodplain.lak
 FILE TYPE:LAK   UNIT   33   STATUS:OLD    
 FORMAT:FORMATTED              ACCESS:SEQUENTIAL          

 OPENING .\input\SFR_LAK_floodplain.tab
 FILE TYPE:DATA   UNIT   55   STATUS:UNKNOWN
 FORMAT:FORMATTED              ACCESS:SEQUENTIAL          

 OPENING .\input\SFR_LAK_floodplain_bath.txt
 FILE TYPE:DATA   UNIT   57   STATUS:UNKNOWN
 FORMAT:FORMATTED              ACCESS:SEQUENTIAL          

 OPENING .\output\SFR_LAK_floodplainhd.out
 FILE TYPE:DATA   UNIT   58   STATUS:UNKNOWN
 FORMAT:FORMATTED              ACCESS:SEQUENTIAL          

 OPENING .\output\SFR_LAK_floodplain.uzfot
 FILE TYPE:DATA(BINARY)   UNIT   61   STATUS:UNKNOWN
 FORMAT:UNFORMATTED            ACCESS:STREAM              

 OPENING .\output\SFR_LAK_floodplain.uzf1
 FILE TYPE:DATA   UNIT   65   STATUS:UNKNOWN
 FORMAT:FORMATTED              ACCESS:SEQUENTIAL          

 OPENING .\output\SFR_LAK_floodplain.uzf2
 FILE TYPE:DATA   UNIT   66   STATUS:UNKNOWN
 FORMAT:FORMATTED              ACCESS:SEQUENTIAL          

 OPENING .\output\SFR_LAK_floodplain.uzf3
 FILE TYPE:DATA   UNIT   67   STATUS:UNKNOWN
 FORMAT:FORMATTED              ACCESS:SEQUENTIAL          

 OPENING .\output\SFR_LAK_floodplain.uzf4
 FILE TYPE:DATA   UNIT   68   STATUS:UNKNOWN
 FORMAT:FORMATTED              ACCESS:SEQUENTIAL          

 OPENING .\output\SFR_LAK_floodplain.flw
 FILE TYPE:DATA   UNIT   81   STATUS:UNKNOWN
 FORMAT:FORMATTED              ACCESS:SEQUENTIAL          

 OPENING .\output\SFR_LAK_floodplain.sg1
 FILE TYPE:DATA   UNIT   83   STATUS:UNKNOWN
 FORMAT:FORMATTED              ACCESS:SEQUENTIAL          

 OPENING .\output\SFR_LAK_floodplain.sg2
 FILE TYPE:DATA   UNIT   84   STATUS:UNKNOWN
 FORMAT:FORMATTED              ACCESS:SEQUENTIAL          

 OPENING .\output\SFR_LAK_floodplain.lg1
 FILE TYPE:DATA   UNIT  801   STATUS:UNKNOWN
 FORMAT:FORMATTED              ACCESS:SEQUENTIAL          

 BAS -- BASIC PACKAGE, VERSION 1.1.4, 4/01/2018 INPUT READ FROM UNIT   75
 
 MODFLOW was compiled using mixed precision
 Precision of REAL variables:           6
 Precision of DOUBLE PRECISION variables:          15

 DISCRETIZATION INPUT DATA READ FROM UNIT    8
 #Test problem 2-- Discretization input
 #Example problem using the UZF1 Package
    2 LAYERS        15 ROWS        10 COLUMNS
   12 STRESS PERIOD(S) IN SIMULATION
 MODEL TIME UNIT IS SECONDS
 MODEL LENGTH UNIT IS FEET
  Confining bed flag for each layer:
   0   0

                     DELR =   5000.00    

                     DELC =   5000.00    



           TOP ELEVATION OF LAYER 1
 READING ON UNIT    8 WITH FORMAT: (10F7.0)            

            1           2           3           4           5           6           7           8           9          10
 ........................................................................................................................
   1    1105.       1105.       0.000       0.000       0.000       0.000       0.000       0.000       0.000       0.000    
   2    1105.       1095.       1105.       0.000       0.000       1100.       1100.       1110.       0.000       0.000    
   3    0.000       1100.       1085.       1080.       1078.       1076.       1073.       1090.       0.000       0.000    
   4    1110.       1100.       1090.       1085.       1074.       1080.       1080.       1070.       1100.       0.000    
   5    1110.       1100.       1085.       1080.       1076.       1074.       1077.       1066.       1075.       1080.    
   6    1105.       1095.       1080.       1077.       1073.       1069.       1070.       1063.       1085.       1095.    
   7    1105.       1090.       1075.       1072.       1070.       1065.       1065.       1069.       1090.       0.000    
   8    0.000       1080.       1070.       1068.       1063.       1060.       1063.       1067.       1090.       0.000    
   9    0.000       1075.       1065.       1062.       1058.       1052.       1055.       1065.       1090.       0.000    
  10    0.000       1070.       1060.       1055.       1046.       1046.       1044.       1060.       1088.       1100.    
  11    0.000       1055.       1050.       1045.       1041.       1042.       1040.       1050.       1075.       0.000    
  12    1027.       1028.       1028.       1032.       1032.       1033.       1032.       1040.       1060.       0.000    
  13    997.0       1004.       1008.       1014.       1020.       1027.       1032.       1038.       1050.       0.000    
  14    0.000       1030.       1040.       1045.       1050.       1050.       1050.       1050.       1044.       0.000    
  15    0.000       0.000       1080.       1080.       1080.       1080.       0.000       0.000       0.000       0.000    



             MODEL LAYER BOTTOM EL. FOR LAYER   1
 READING ON UNIT    8 WITH FORMAT: (10F7.0)            

            1           2           3           4           5           6           7           8           9          10
 ........................................................................................................................
   1    1105.       1105.       0.000       0.000       0.000       0.000       0.000       0.000       0.000       0.000    
   2    1105.       1095.       1105.       0.000       0.000       1100.       1100.       1110.       0.000       0.000    
   3    0.000       1100.       1085.       1080.       1078.       1076.       1073.       1090.       0.000       0.000    
   4    1110.       1100.       1090.       1085.       1074.       1080.       1080.       1070.       1100.       0.000    
   5    1110.       1100.       1085.       1080.       1076.       1074.       1077.       1066.       1075.       1080.    
   6    1105.       1095.       1080.       1077.       1073.       1069.       1070.       1063.       1085.       1095.    
   7    1105.       1090.       1075.       1072.       1070.       1065.       1065.       1069.       1090.       0.000    
   8    0.000       1080.       1070.       1068.       1063.       1060.       1063.       1067.       1090.       0.000    
   9    0.000       1075.       1065.       1062.       1058.       1052.       1055.       1065.       1090.       0.000    
  10    0.000       1070.       1060.       1055.       1046.       1046.       1044.       1060.       1088.       1100.    
  11    0.000       1055.       1050.       1045.       1041.       1042.       1040.       1050.       1075.       0.000    
  12    1027.       1028.       1028.       1032.       1032.       1033.       1032.       1040.       1060.       0.000    
  13    997.0       1004.       1008.       1014.       1020.       1027.       1032.       1038.       1050.       0.000    
  14    0.000       1030.       1040.       1045.       1050.       1050.       1050.       1050.       1044.       0.000    
  15    0.000       0.000       1080.       1080.       1080.       1080.       0.000       0.000       0.000       0.000    



             MODEL LAYER BOTTOM EL. FOR LAYER   2
 READING ON UNIT    8 WITH FORMAT: (10F7.0)            

            1           2           3           4           5           6           7           8           9          10
 ........................................................................................................................
   1    1000.       1000.       0.000       0.000       0.000       0.000       0.000       0.000       0.000       0.000    
   2    1000.       900.0       900.0       0.000       0.000       950.0       950.0       950.0       0.000       0.000    
   3    0.000       850.0       670.0       680.0       680.0       770.0       770.0       890.0       0.000       0.000    
   4    925.0       850.0       650.0       650.0       650.0       680.0       740.0       850.0       950.0       0.000    
   5    925.0       800.0       650.0       600.0       600.0       600.0       650.0       720.0       850.0       950.0    
   6    925.0       800.0       650.0       600.0       550.0       600.0       650.0       720.0       850.0       970.0    
   7    925.0       800.0       650.0       600.0       550.0       600.0       650.0       720.0       950.0       0.000    
   8    0.000       850.0       700.0       650.0       570.0       600.0       700.0       850.0       950.0       0.000    
   9    0.000       850.0       700.0       650.0       540.0       580.0       700.0       850.0       950.0       0.000    
  10    0.000       850.0       700.0       630.0       530.0       580.0       650.0       800.0       900.0       950.0    
  11    0.000       850.0       700.0       620.0       580.0       620.0       700.0       800.0       900.0       0.000    
  12    900.0       830.0       710.0       640.0       600.0       650.0       700.0       800.0       900.0       0.000    
  13    900.0       810.0       750.0       700.0       650.0       700.0       750.0       800.0       900.0       0.000    
  14    0.000       950.0       850.0       850.0       850.0       850.0       850.0       850.0       850.0       0.000    
  15    0.000       0.000       950.0       950.0       950.0       950.0       0.000       0.000       0.000       0.000    


 STRESS PERIOD     LENGTH       TIME STEPS     MULTIPLIER FOR DELT    SS FLAG
 ----------------------------------------------------------------------------
        1         2628000.          1                    1.000         SS
        2         2628000.         15                    1.000         TR
        3         2628000.         15                    1.000         TR
        4         2628000.         15                    1.000         TR
        5         2628000.         15                    1.000         TR
        6         2628000.         15                    1.000         TR
        7         2628000.         15                    1.000         TR
        8         2628000.         15                    1.000         TR
        9         2628000.         15                    1.000         TR
       10         2628000.         15                    1.000         TR
       11         2628000.         15                    1.000         TR
       12        2.1024000E+07    120                    1.000         TR

 COMBINED STEADY-STATE AND TRANSIENT SIMULATION



 
 #Test Simulation 2-- Example problem using the UZF1 Package                     
 #Modified from example Problem 1 of SFR1 documentation report                   
 THE FREE FORMAT OPTION HAS BEEN SELECTED



                     BOUNDARY ARRAY FOR LAYER   1
 READING ON UNIT   75 WITH FORMAT: (20I4)              

                1           2           3           4           5           6           7           8           9          10
 ............................................................................................................................
   1            0           0           0           0           0           0           0           0           0           0
   2            0           0           0           0           0           0           0           0           0           0
   3            0           0           0           0           0           0           0           0           0           0
   4            0           0           0           0           0           0           0           0           0           0
   5            0           0           0           0           0           0           0           0           0           0
   6            0           0           0           0           0           0           0           0           0           0
   7            0           0           0           0           0           0           0           0           0           0
   8            0           0           0           0           0           0           0           0           0           0
   9            0           0           0           0           0           0           0           0           0           0
  10            0           0           0           0           0           0           0           0           0           0
  11            0           0           0           0           0           0           0           0           0           0
  12            0           0           0           0           0           0           0           0           0           0
  13            0           0           0           0           0           0           0           0           0           0
  14            0           0           0           0           0           0           0           0           0           0
  15            0           0           0           0           0           0           0           0           0           0



                     BOUNDARY ARRAY FOR LAYER   2
 READING ON UNIT   75 WITH FORMAT: (20I4)              

                1           2           3           4           5           6           7           8           9          10
 ............................................................................................................................
   1            1           1           0           0           0           0           0           0           0           0
   2            1           1           1           0           0           1           1           1           0           0
   3            0           1           1           1           1           1           1           1           0           0
   4            1           1           1           1           1           1           1           1           1           0
   5            1           1           1           1           1           1           1           1           1           1
   6            1           1           1           1           1           1           1           1           1           1
   7            1           1           1           1           1           1           1           1           1           0
   8            0           1           1           1           1           1           1           1           1           0
   9            0           1           1           1           1           1           1           1           1           0
  10            0           1           1           1           1           1           1           1           1           1
  11            0           1           1           1           1           1           1           1           1           0
  12            1           1           1           1           1           1           1           1           1           0
  13            1           1           1           1           1           1           1           1           1           0
  14            0           1           1           1           1           1           1           1           1           0
  15            0           0           1           1           1           1           0           0           0           0

 AQUIFER HEAD WILL BE SET TO   6999.0     AT ALL NO-FLOW NODES (IBOUND=0).



                       INITIAL HEAD FOR LAYER   1
 READING ON UNIT   75 WITH FORMAT: (10F10.3)           

            1           2           3           4           5           6           7           8           9          10
 ........................................................................................................................
   1    1092.       1089.       6999.       6999.       6999.       6999.       6999.       6999.       6999.       6999.    
   2    1089.       1084.       1079.       6999.       6999.       1072.       1071.       1071.       6999.       6999.    
   3    6999.       1076.       1071.       1067.       1066.       1067.       1067.       1068.       6999.       6999.    
   4    1067.       1068.       1065.       1061.       1059.       1059.       1060.       1063.       1064.       6999.    
   5    1063.       1060.       1057.       1055.       1055.       1055.       1056.       1058.       1062.       1065.    
   6    1059.       1055.       1051.       1050.       1050.       1051.       1053.       1055.       1059.       1064.    
   7    1056.       1049.       1045.       1044.       1045.       1047.       1049.       1052.       1055.       6999.    
   8    6999.       1043.       1040.       1039.       1040.       1042.       1044.       1048.       1050.       6999.    
   9    6999.       1035.       1034.       1034.       1035.       1037.       1038.       1041.       1045.       6999.    
  10    6999.       1028.       1028.       1029.       1030.       1032.       1034.       1036.       1041.       1046.    
  11    6999.       1020.       1021.       1024.       1026.       1029.       1031.       1033.       1037.       6999.    
  12    1003.       1010.       1014.       1019.       1023.       1026.       1029.       1032.       1036.       6999.    
  13    996.5       1001.       1009.       1014.       1020.       1025.       1029.       1034.       1037.       6999.    
  14    6999.       1008.       1011.       1016.       1021.       1026.       1030.       1035.       1039.       6999.    
  15    6999.       6999.       1021.       1023.       1027.       1029.       6999.       6999.       6999.       6999.    



                       INITIAL HEAD FOR LAYER   2
 READING ON UNIT   75 WITH FORMAT: (10F10.3)           

            1           2           3           4           5           6           7           8           9          10
 ........................................................................................................................
   1    1092.       1089.       6999.       6999.       6999.       6999.       6999.       6999.       6999.       6999.    
   2    1089.       1084.       1079.       6999.       6999.       1072.       1071.       1071.       6999.       6999.    
   3    6999.       1076.       1071.       1067.       1066.       1067.       1067.       1068.       6999.       6999.    
   4    1067.       1068.       1065.       1061.       1059.       1059.       1060.       1063.       1064.       6999.    
   5    1063.       1060.       1057.       1055.       1055.       1055.       1056.       1058.       1062.       1065.    
   6    1059.       1055.       1051.       1050.       1050.       1051.       1053.       1055.       1059.       1064.    
   7    1056.       1049.       1045.       1044.       1045.       1047.       1049.       1052.       1055.       6999.    
   8    6999.       1043.       1040.       1039.       1040.       1042.       1044.       1048.       1050.       6999.    
   9    6999.       1035.       1034.       1034.       1035.       1037.       1038.       1041.       1045.       6999.    
  10    6999.       1028.       1028.       1029.       1030.       1032.       1034.       1036.       1041.       1046.    
  11    6999.       1020.       1021.       1024.       1026.       1029.       1031.       1033.       1037.       6999.    
  12    1003.       1010.       1014.       1019.       1023.       1026.       1029.       1032.       1036.       6999.    
  13    996.5       1001.       1009.       1014.       1020.       1025.       1029.       1034.       1037.       6999.    
  14    6999.       1008.       1011.       1016.       1021.       1026.       1030.       1035.       1039.       6999.    
  15    6999.       6999.       1021.       1023.       1027.       1029.       6999.       6999.       6999.       6999.    

 OUTPUT CONTROL IS SPECIFIED ONLY AT TIME STEPS FOR WHICH OUTPUT IS DESIRED
 HEADS WILL BE SAVED WITH FORMAT: (10F10.3)           
 SAVED HEADS WILL BE LABELED
 HEAD PRINT FORMAT CODE IS   4    DRAWDOWN PRINT FORMAT CODE IS   0
 HEADS WILL BE SAVED ON UNIT   58    DRAWDOWNS WILL BE SAVED ON UNIT    0
 # MODFLOW-NWT

 NWT1 -- Newton Solver, VERSION 1.1.4, 4/01/2018
         INPUT READ FROM UNIT 13

 SPECIFIED OPTION:
 SOLVER INPUT VALUES ARE SPECIFIED BY USER
 ***XMD linear solver will be used***
 
   CONVERGENCE CRITERION OF   0.100000E-02 FOR HEAD SOLUTION
   AND A TOLERANCE OF   0.100000E+01 FOR FLOW SOLUTION AND 
   A MAXIMUM OF   500 OUTER ITERATIONS. 


   D-B-D REDUCTION FACTOR OF    0.960000E+00 AND 
   A D-B-D INCREASE FACTOR OF    0.100000E-03 AND 
   A D-B-D RELAXATION OF    0.000000E+00 AND 
   A MOMENTUM FACTOR OF    0.100000E+00 .


 ***BACKTRACKING IS INACTIVE***
 XMD -- LINEAR SOLUTION BY XMD PACKAGE VERSION 1.30
     BY MOTOMU IBARAKI, OHIO STATE UNIVERSITY, COLOMBUS, OH
                 INPUT READ FROM UNIT 13
 ACCELERATION METHOD                    (IACL) =         1
 NODE ORDERING FLAG                   (NORDER) =         0
 LEVEL OF FILL                         (LEVEL) =         5
 MAXIMUM NUMBER OF ORTHOGONALIZATIONS  (NORTH) =         7
 INDEX FOR USING REDUCED SYSTEM      (IREDSYS) =         1
 RESID. REDUCTION CONVERGE CRITERION  (RRCTOL) =  0.000000E+00
 INDEX FOR USING DROP TOLERANCE     (IDROPTOL) =         0
 DROP TOLERANCE VALUE                  (EPSRN) =  0.500000E-02
 CONVERGENCE CRITERIA OF           (HCLOSEXMD) =  0.100000E-02
 MAX. NUMBER OF LINEAR ITERATIONS  (MXITERXMD) =        50


 UPW1 -- UPSTREAM WEIGHTING FLOW PACKAGE, VERSION 1.1.4, 4/01/2018
         INPUT READ FROM UNIT  7

 #Layer-Property Flow Package input for test simulation 2
 No named parameters

   LAYER FLAGS:
 LAYER       LAYTYP          LAYAVG    CHANI           LAYVKA           LAYWET
 ---------------------------------------------------------------------------
    1             1             0     1.000E+00             0             0
    2             1             0     1.000E+00             0             0

   INTERPRETATION OF LAYER FLAGS:
                        INTERBLOCK     HORIZONTAL    DATA IN
         LAYER TYPE   TRANSMISSIVITY   ANISOTROPY   ARRAY VKA   WETTABILITY
 LAYER   (LAYTYP)        (LAYAVG)      (CHANI)     (LAYVKA)       (LAYWET)
 ---------------------------------------------------------------------------
    1   CONVERTIBLE      HARMONIC     1.000E+00    VERTICAL K  NON-WETTABLE
    2   CONVERTIBLE      HARMONIC     1.000E+00    VERTICAL K  NON-WETTABLE



              HYD. COND. ALONG ROWS FOR LAYER   1
 READING ON UNIT    7 WITH FORMAT: (10F5.0)            

            1           2           3           4           5           6           7           8           9          10
 ........................................................................................................................
   1   3.0000E-03  3.0000E-03   0.000       0.000       0.000       0.000       0.000       0.000       0.000       0.000    
   2   6.0000E-04  3.0000E-03  3.0000E-03   0.000       0.000      6.0000E-04  6.0000E-04  6.0000E-04   0.000       0.000    
   3    0.000      6.0000E-04  3.0000E-03  3.0000E-03  6.0000E-04  6.0000E-04  6.0000E-04  6.0000E-04   0.000       0.000    
   4   6.0000E-04  6.0000E-04  6.0000E-04  3.0000E-03  3.0000E-03  3.0000E-03  6.0000E-04  6.0000E-04  6.0000E-04   0.000    
   5   6.0000E-04  6.0000E-04  6.0000E-04  3.0000E-03  3.0000E-03  3.0000E-03  3.0000E-03  3.0000E-03  3.0000E-03  3.0000E-03
   6   6.0000E-04  6.0000E-04  6.0000E-04  3.0000E-03  3.0000E-03  3.0000E-03  3.0000E-03  3.0000E-03  6.0000E-04  6.0000E-04
   7   6.0000E-04  6.0000E-04  6.0000E-04  3.0000E-03  3.0000E-03  3.0000E-03  3.0000E-03  3.0000E-03  6.0000E-04   0.000    
   8    0.000      6.0000E-04  6.0000E-04  3.0000E-03  3.0000E-03  3.0000E-03  3.0000E-03  6.0000E-04  6.0000E-04   0.000    
   9    0.000      6.0000E-04  6.0000E-04  3.0000E-03  3.0000E-03  3.0000E-03  3.0000E-03  6.0000E-04  6.0000E-04   0.000    
  10    0.000      6.0000E-04  6.0000E-04  3.0000E-03  3.0000E-03  3.0000E-03  3.0000E-03  6.0000E-04  6.0000E-04  6.0000E-04
  11    0.000      6.0000E-04  6.0000E-04  3.0000E-03  3.0000E-03  3.0000E-03  3.0000E-03  6.0000E-04  6.0000E-04   0.000    
  12   6.0000E-04  6.0000E-04  3.0000E-03  3.0000E-03  3.0000E-03  3.0000E-03  3.0000E-03  6.0000E-04  6.0000E-04   0.000    
  13   3.0000E-03  3.0000E-03  3.0000E-03  3.0000E-03  3.0000E-03  3.0000E-03  3.0000E-03  3.0000E-03  3.0000E-03   0.000    
  14    0.000      6.0000E-04  6.0000E-04  6.0000E-04  6.0000E-04  6.0000E-04  6.0000E-04  6.0000E-04  3.0000E-03   0.000    
  15    0.000       0.000      6.0000E-04  6.0000E-04  6.0000E-04  6.0000E-04   0.000       0.000       0.000       0.000    

      VERTICAL HYD. COND. =  8.000000E-05 FOR LAYER   1

         SPECIFIC STORAGE =  1.000000E-06 FOR LAYER   1



                     SPECIFIC YIELD FOR LAYER   1
 READING ON UNIT    7 WITH FORMAT: (10F5.0)            

            1           2           3           4           5           6           7           8           9          10
 ........................................................................................................................
   1   0.2000      0.2000       0.000       0.000       0.000       0.000       0.000       0.000       0.000       0.000    
   2   0.1000      0.2000      0.2000       0.000       0.000      0.1000      0.1000      0.1000       0.000       0.000    
   3    0.000      0.1000      0.2000      0.2000      0.1000      0.1000      0.1000      0.1000       0.000       0.000    
   4   0.1000      0.1000      0.1000      0.2000      0.2000      0.2000      0.1000      0.1000      0.1000       0.000    
   5   0.1000      0.1000      0.1000      0.2000      0.2000      0.2000      0.2000      0.2000      0.2000      0.2000    
   6   0.1000      0.1000      0.1000      0.2000      0.2000      0.2000      0.2000      0.2000      0.1000      0.1000    
   7   0.1000      0.1000      0.1000      0.2000      0.2000      0.2000      0.2000      0.2000      0.1000       0.000    
   8    0.000      0.1000      0.1000      0.2000      0.2000      0.2000      0.2000      0.1000      0.1000       0.000    
   9    0.000      0.1000      0.1000      0.2000      0.2000      0.2000      0.2000      0.1000      0.1000       0.000    
  10    0.000      0.1000      0.1000      0.2000      0.2000      0.2000      0.2000      0.1000      0.1000      0.1000    
  11    0.000      0.1000      0.1000      0.2000      0.2000      0.2000      0.2000      0.1000      0.1000       0.000    
  12   0.1000      0.1000      0.2000      0.2000      0.2000      0.2000      0.2000      0.1000      0.1000       0.000    
  13   0.2000      0.2000      0.2000      0.2000      0.2000      0.2000      0.2000      0.2000      0.2000       0.000    
  14    0.000      0.1000      0.1000      0.1000      0.1000      0.1000      0.1000      0.1000      0.2000       0.000    
  15    0.000       0.000      0.1000      0.1000      0.1000      0.1000       0.000       0.000       0.000       0.000    



              HYD. COND. ALONG ROWS FOR LAYER   2
 READING ON UNIT    7 WITH FORMAT: (10F5.0)            

            1           2           3           4           5           6           7           8           9          10
 ........................................................................................................................
   1   3.0000E-03  3.0000E-03   0.000       0.000       0.000       0.000       0.000       0.000       0.000       0.000    
   2   6.0000E-04  3.0000E-03  3.0000E-03   0.000       0.000      6.0000E-04  6.0000E-04  6.0000E-04   0.000       0.000    
   3    0.000      6.0000E-04  3.0000E-03  3.0000E-03  6.0000E-04  6.0000E-04  6.0000E-04  6.0000E-04   0.000       0.000    
   4   6.0000E-04  6.0000E-04  6.0000E-04  3.0000E-03  3.0000E-03  3.0000E-03  6.0000E-04  6.0000E-04  6.0000E-04   0.000    
   5   6.0000E-04  6.0000E-04  6.0000E-04  3.0000E-03  3.0000E-03  3.0000E-03  3.0000E-03  3.0000E-03  3.0000E-03  3.0000E-03
   6   6.0000E-04  6.0000E-04  6.0000E-04  3.0000E-03  3.0000E-03  3.0000E-03  3.0000E-03  3.0000E-03  6.0000E-04  6.0000E-04
   7   6.0000E-04  6.0000E-04  6.0000E-04  3.0000E-03  3.0000E-03  3.0000E-03  3.0000E-03  3.0000E-03  6.0000E-04   0.000    
   8    0.000      6.0000E-04  6.0000E-04  3.0000E-03  3.0000E-03  3.0000E-03  3.0000E-03  6.0000E-04  6.0000E-04   0.000    
   9    0.000      6.0000E-04  6.0000E-04  3.0000E-03  3.0000E-03  3.0000E-03  3.0000E-03  6.0000E-04  6.0000E-04   0.000    
  10    0.000      6.0000E-04  6.0000E-04  3.0000E-03  3.0000E-03  3.0000E-03  3.0000E-03  6.0000E-04  6.0000E-04  6.0000E-04
  11    0.000      6.0000E-04  6.0000E-04  3.0000E-03  3.0000E-03  3.0000E-03  3.0000E-03  6.0000E-04  6.0000E-04   0.000    
  12   6.0000E-04  6.0000E-04  3.0000E-03  3.0000E-03  3.0000E-03  3.0000E-03  3.0000E-03  6.0000E-04  6.0000E-04   0.000    
  13   3.0000E-03  3.0000E-03  3.0000E-03  3.0000E-03  3.0000E-03  3.0000E-03  3.0000E-03  3.0000E-03  3.0000E-03   0.000    
  14    0.000      6.0000E-04  6.0000E-04  6.0000E-04  6.0000E-04  6.0000E-04  6.0000E-04  6.0000E-04  3.0000E-03   0.000    
  15    0.000       0.000      6.0000E-04  6.0000E-04  6.0000E-04  6.0000E-04   0.000       0.000       0.000       0.000    

      VERTICAL HYD. COND. =  8.000000E-05 FOR LAYER   2

         SPECIFIC STORAGE =  1.000000E-06 FOR LAYER   2



                     SPECIFIC YIELD FOR LAYER   2
 READING ON UNIT    7 WITH FORMAT: (10F5.0)            

            1           2           3           4           5           6           7           8           9          10
 ........................................................................................................................
   1   0.2000      0.2000       0.000       0.000       0.000       0.000       0.000       0.000       0.000       0.000    
   2   0.1000      0.2000      0.2000       0.000       0.000      0.1000      0.1000      0.1000       0.000       0.000    
   3    0.000      0.1000      0.2000      0.2000      0.1000      0.1000      0.1000      0.1000       0.000       0.000    
   4   0.1000      0.1000      0.1000      0.2000      0.2000      0.2000      0.1000      0.1000      0.1000       0.000    
   5   0.1000      0.1000      0.1000      0.2000      0.2000      0.2000      0.2000      0.2000      0.2000      0.2000    
   6   0.1000      0.1000      0.1000      0.2000      0.2000      0.2000      0.2000      0.2000      0.1000      0.1000    
   7   0.1000      0.1000      0.1000      0.2000      0.2000      0.2000      0.2000      0.2000      0.1000       0.000    
   8    0.000      0.1000      0.1000      0.2000      0.2000      0.2000      0.2000      0.1000      0.1000       0.000    
   9    0.000      0.1000      0.1000      0.2000      0.2000      0.2000      0.2000      0.1000      0.1000       0.000    
  10    0.000      0.1000      0.1000      0.2000      0.2000      0.2000      0.2000      0.1000      0.1000      0.1000    
  11    0.000      0.1000      0.1000      0.2000      0.2000      0.2000      0.2000      0.1000      0.1000       0.000    
  12   0.1000      0.1000      0.2000      0.2000      0.2000      0.2000      0.2000      0.1000      0.1000       0.000    
  13   0.2000      0.2000      0.2000      0.2000      0.2000      0.2000      0.2000      0.2000      0.2000       0.000    
  14    0.000      0.1000      0.1000      0.1000      0.1000      0.1000      0.1000      0.1000      0.2000       0.000    
  15    0.000       0.000      0.1000      0.1000      0.1000      0.1000       0.000       0.000       0.000       0.000    

 WEL -- WELL PACKAGE FOR NWT VERSION 1.1.4,  4/01/2018 INPUT READ FROM UNIT   16
 #Well Package input for test simulation 2
 No named parameters
 MAXIMUM OF     10 ACTIVE WELLS AT ONE TIME
 CELL-BY-CELL FLOWS WILL BE PRINTED WHEN ICBCFL NOT 0
 No named parameters


     0 Well parameters

 GHB -- GENERAL-HEAD BOUNDARY PACKAGE, VERSION 7, 5/2/2005
         INPUT READ FROM UNIT   17
 No named parameters
 MAXIMUM OF      2 ACTIVE GHB CELLS AT ONE TIME
 CELL-BY-CELL FLOWS WILL BE PRINTED WHEN ICBCFL NOT 0


     0 GHB parameters

 SFR7 -- STREAMFLOW ROUTING PACKAGE, VERSION 1.0.5, 2012-04-05
         INPUT READ FROM UNIT  15
 #SFR2 Package input for Test Simulation 2
 No named parameters

 PROCESSING SFR2 OPTIONS
 
          1 Specified inflow files will be read with a maximum of         50 row entries per file

 END PROCESSING SFR2 OPTIONS
 


 NUMBER OF STREAM REACHES IS   38

 NUMBER OF STREAM SEGMENTS IS   10

 NUMBER OF STREAM PARAMETERS IS    0

 NUMBER OF STREAM SEGMENTS DEFINED USING PARAMETERS IS              0

 MAXIMUM ERROR FOR STREAM LEAKAGE RATES IS  1.00E-06

 CONSTANT FOR MANNINGS EQUATION IS  1.4860E+00



 STREAM OUTPUT WILL BE WRITTEN TO FILE ON UNIT   81


   STREAM NETWORK DESCRIPTION: 

   LAYER    ROW    COL   SEGMENT   REACH     LENGTH
                          NUMBER   NUMBER    IN CELL        
   --------------------------------------------------
      2      1      1       1        1    4.5000E+03
      2      2      2       1        2    7.0000E+03
      2      3      3       1        3    6.0000E+03
      2      3      4       1        4    5.5500E+03
      2      4      5       2        1    6.5000E+03
      2      5      6       2        2    5.0000E+03
      2      6      6       2        3    5.0000E+03
      2      7      6       2        4    5.0000E+03
      2      8      6       2        5    5.0000E+03
      2      3      5       3        1    5.0000E+03
      2      3      6       3        2    5.0000E+03
      2      3      7       3        3    4.5000E+03
      2      4      8       3        4    6.0000E+03
      2      5      8       3        5    5.0000E+03
      2      6      8       3        6    2.0000E+03
      2      5     10       4        1    2.5000E+03
      2      5      9       4        2    5.0000E+03
      2      6      8       4        3    3.5000E+03
      2      6      8       5        1    4.0000E+03
      2      7      7       5        2    5.0000E+03
      2      8      7       5        3    3.5000E+03
      2      8      6       5        4    2.5000E+03
      2      9      6       6        1    5.0000E+03
      2     10      7       6        2    5.0000E+03
      2     11      7       6        3    5.0000E+03
      2     12      7       6        4    5.0000E+03
      2     13      7       6        5    2.0000E+03
      2     14      9       7        1    5.0000E+03
      2     13      8       7        2    5.5000E+03
      2     13      7       7        3    5.0000E+03
      2     13      6       8        1    5.0000E+03
      2     13      5       8        2    5.0000E+03
      2     13      4       8        3    5.0000E+03
      2     13      3       8        4    5.0000E+03
      2     13      2       8        5    5.0000E+03
      2     13      1       8        6    3.0000E+03
      2      4      5       9        1    1.0000E+01
      2      4      5      10        1    1.0000E+01




 UZF1 -- UNSATURATED FLOW PACKAGE, VERSION 1.5, 09/10/2019
         INPUT READ FROM UNIT 19
 #UZF Package input for test simulation 2
 No named parameters

 PROCESSING UZF OPTIONS
 
 
 INITIAL WATER CONTENT (THTI) WILL BE 
READ FOR THE FIRST SS OR TR STRESS PERIOD
 

 END PROCESSING UZF OPTIONS



            AREAL EXTENT OF UZ FLOW
 READING ON UNIT   19 WITH FORMAT: (20I4)              

                1           2           3           4           5           6           7           8           9          10
 ............................................................................................................................
   1            2           2           0           0           0           0           0           0           0           0
   2            2           2           2           0           0           2           2           2           0           0
   3            0           2           2           2           2           2           2           2           0           0
   4            2           2           2           2           2           2           2           2           2           0
   5            2           2           2           2           2           2           2           2           2           2
   6            2           2           2           2           2           2           2           2           2           2
   7            2           2           2           2           2           2           2           2           2           0
   8            0           2           2           2           2           2           2           2           2           0
   9            0           2           2           2           2           2           2           2           2           0
  10            0           2           2           2           2           2           2           2           2           2
  11            0           2           2           2           2           2           2           2           2           0
  12            2           2           2           2           2           2           2           2           2           0
  13            2           2           2           2           2           2           2           2           2           0
  14            0           2           2           2           2           2           2           2           2           0
  15            0           0           2           2           2           2           0           0           0           0
 OPTION 3 -- RECHARGE IN UZF TO HIGHEST ACTIVE NODE IN EACH VERTICAL COLUMN



            ROUTING OVERLAND RUNOFF
 READING ON UNIT   19 WITH FORMAT: (20I4)              

                1           2           3           4           5           6           7           8           9          10
 ............................................................................................................................
   1            1           1           0           0           0           0           0           0           0           0
   2            1           1           1           0           0           3           3           3           0           0
   3            0           1           1           1           3           3           3           3           0           0
   4            8           8           2           2           2           2           2           3           3           0
   5            8           8           8           8           2           2           2           3           4           4
   6            8           8           8           8           8           2           2           4           4           4
   7            8           8           8           8           8           2           5           5           5           0
   8            0           8           8           8           8           2           5           5           5           0
   9            0           8           8           8           8           6           6           6           6           0
  10            0           8           8           8           8           6           6           6           6           6
  11            0           8           8           8           8           8           6           6           7           0
  12            8           8           8           8           8           8           6           7           7           0
  13            8           8           8           8           8           8           7           7           7           0
  14            0           8           8           8           8           8           7           7           7           0
  15            0           0           8           8           8           8           0           0           0           0

     BROOKS-COREY EPSILON =   3.50000    

  SATURATED WATER CONTENT =  0.300000    



              INITIAL WATER CONTENT
 READING ON UNIT   19 WITH FORMAT: (FREE)              

            1           2           3           4           5           6           7           8           9          10
 ........................................................................................................................
   1   0.1100      0.1100       0.000       0.000       0.000       0.000       0.000       0.000       0.000       0.000    
   2   0.2100      0.1100      0.1100       0.000       0.000      0.2100      0.2100      0.2100       0.000       0.000    
   3    0.000      0.2100      0.1100      0.1100      0.2100      0.2100      0.2100      0.2100       0.000       0.000    
   4   0.2100      0.2100      0.2100      0.1100      0.1100      0.1100      0.2100      0.2100      0.2100       0.000    
   5   0.2100      0.2100      0.2100      0.1100      0.1100      0.1100      0.1100      0.1100      0.1100      0.1100    
   6   0.2100      0.2100      0.2100      0.1100      0.1100      0.1100      0.1100      0.1100      0.2100      0.2100    
   7   0.2100      0.2100      0.2100      0.1100      0.1100      0.1100      0.1100      0.1100      0.2100       0.000    
   8    0.000      0.2100      0.2100      0.1100      0.1100      0.1100      0.1100      0.2100      0.2100       0.000    
   9    0.000      0.2100      0.2100      0.1100      0.1100      0.1100      0.1100      0.2100      0.2100       0.000    
  10    0.000      0.2100      0.2100      0.1100      0.1100      0.1100      0.1100      0.2100      0.2100      0.2100    
  11    0.000      0.2100      0.2100      0.1100      0.1100      0.1100      0.1100      0.2100      0.2100       0.000    
  12   0.2100      0.2100      0.1100      0.1100      0.1100      0.1100      0.1100      0.2100      0.2100       0.000    
  13   0.1100      0.1100      0.1100      0.1100      0.1100      0.1100      0.1100      0.1100      0.1100       0.000    
  14    0.000      0.2100      0.2100      0.2100      0.2100      0.2100      0.2100      0.2100      0.1100       0.000    
  15    0.000       0.000      0.2100      0.2100      0.2100      0.2100       0.000       0.000       0.000       0.000    

UNSATURATED FLOW RESULTS WILL BE PRINTED TO SEPARATE FILES FOR SELECTED MODEL CELLS, AND TIME STEPS AS DEFINED BY OUTPUT CONTROL PACKAGE 

SELECTED MODEL CELLS ARE: 
 ROW NUMBER  COLUMN NUMBER  FORTRAN UNIT NUMBER  OUTPUT OPTION


       4             5                 65                 1
       4             5                 66                 2
       4             5                 67                 3
       0             0                 68                 4

 LAK7 -- LAKE PACKAGE, VERSION 7, 1/07/2013 INPUT READ FROM UNIT 33
 # Example input for specifying lake bathymetry information using external
 # text files using key word option “TABLEINPUT”
 No named parameters

 SPACE ALLOCATION FOR    150 GRID CELL FACES ADJACENT TOLAKES
 MAXIMUM NUMBER OF LAKES IS  1 FOR THIS SIMULATION
 CELL-BY-CELL SEEPAGES WILL NOT BE PRINTED OR SAVED


 NEWTON ITERATION METHOD FOR COMPUTING LAKE STAGE DURING STEADY-STATE STRESS PERIODS HAS BEEN MODIFIED:
 SPECIFIED THETA OF  0.800 WILL BE AUTOMATICALLY CHANGED TO 1.0 FOR ALL STEADY STATE STRESS PERIODS.
 MAXIMUM NUMBER OF STEADY-STATE ITERATIONS (NSSITR) =    50
 CLOSURE CRITERIA FOR STEADY-STATE LAKE STAGE (SSCNCR) =  1.000000E-04





   3 GAGING STATIONS WERE SPECIFIED.
     (Lakes are identified by a negative value of the Lake Number)
     RECORDS WILL BE WRITTEN TO SEPARATE OUTPUT FILES REPRESENTED BY FOLLOWING UNIT NUMBERS:

 Stream Gages:
  GAGE #   SEGMENT   REACH   UNIT   OUTTYPE
       1       1       4      83       4
       2       2       1      84       4
 Lake Gages:
  GAGE #    LAKE     UNIT   OUTTYPE
       3      -1    -801       3




1
                            STRESS PERIOD NO.    1, LENGTH =   2628000.    
                            -----------------------------------------------

                              NUMBER OF TIME STEPS =     1

                               MULTIPLIER FOR DELT =     1.000

                            INITIAL TIME STEP SIZE =   2628000.    

 WELL NO.  LAYER   ROW   COL   STRESS RATE         
 --------------------------------------------------
      1      2      6      4      -2.000    
      2      2      6      5      -2.000    
      3      2      7      4      -2.000    
      4      2      7      5      -2.000    
      5      2      8      4      -2.000    
      6      2      8      5      -2.000    
      7      2      9      4      -2.000    
      8      2      9      5      -2.000    
      9      2     10      4      -2.000    
     10      2     10      5      -2.000    

     10 WELLS

 BOUND. NO. LAYER   ROW   COL     STAGE      CONDUCTANCE         
 ----------------------------------------------------------------
      1      2     13      1       988.0          0.3800E-01
      2      2     14      9       1045.          0.3800E-01

      2 GHB CELLS



 CLASSIFICATION & COUNT OF STREAM SEGMENTS BASED ON SOURCE OF INFLOW:

                HEADWATER     DIVERSION     RECEIVES TRIBUTARY FLOW
                ---------     ---------     -----------------------
                     3              3               4



                    INPUT DATA FOR EACH STREAM SEGMENT
 ---------------------------------------------------------------------------------------------

 SEGMENT    SEG.     INFLOW   OVERLAND   STREAM    STREAM   ICALC  OUTFLOW  DIVERSION PRIORITY
    NO.    LENGTH     RATE     RUNOFF      ET       PPT.    METH.  TO SEG.  FROM SEG.    NO.

      1  2.305E+04 2.500E+01 0.000E+00 0.000E+00 0.000E+00    4        2        0        0
      2  2.650E+04 0.000E+00 0.000E+00 0.000E+00 0.000E+00    1        6        0        0
      3  2.750E+04 1.000E+01 0.000E+00 0.000E+00 0.000E+00    0        5        1        0
      4  1.100E+04 1.000E+01 0.000E+00 0.000E+00 0.000E+00    1        5        0        0
      5  1.500E+04 0.000E+00 0.000E+00 0.000E+00 0.000E+00    3        6        0        0
      6  2.200E+04 0.000E+00 0.000E+00 0.000E+00 0.000E+00    1        8        0        0
      7  1.550E+04 1.500E+02 0.000E+00 0.000E+00 0.000E+00    2        8        0        0
      8  2.800E+04 0.000E+00 0.000E+00 0.000E+00 0.000E+00    2        0        0        0
      9  1.000E+01 2.000E+03 0.000E+00 0.000E+00 0.000E+00    1       -1        1       -3
     10  1.000E+01 0.000E+00 0.000E+00 0.000E+00 0.000E+00    1        2       -1        0


         STREAMBED PROPERTIES AND STREAM DIMENSIONS

 SEGMENT     BED HYD. COND.      BED THICKNESS     ELEV.-TOP OF BED     WIDTH OF STREAM     DEPTH OF STREAM    STREAM ROUGHNESS
    No.     UPPER     LOWER     UPPER     LOWER     UPPER     LOWER     UPPER     LOWER     UPPER     LOWER   CHANNEL      BANK

     1  3.000E-05 3.000E-05 3.000E+00 3.000E+00 1.095E+03 1.075E+03
     2  3.000E-05 3.000E-05 3.000E+00 3.000E+00 1.075E+03 1.050E+03 1.200E+01 1.200E+01                     3.000E-02
     3  3.000E-05 3.000E-05 2.000E+00 2.000E+00 1.075E+03 1.060E+03 1.000E+01 6.000E+00 2.000E+00 1.000E+00
     4  3.000E-05 3.000E-05 3.000E+00 3.000E+00 1.080E+03 1.060E+03 1.000E+01 1.000E+01                     3.000E-02
     5  3.000E-05 3.000E-05 3.000E+00 3.000E+00 1.060E+03 1.045E+03
     6  3.000E-05 3.000E-05 3.000E+00 3.000E+00 1.045E+03 1.025E+03 1.200E+01 1.200E+01                     3.000E-02
     7  6.000E-05 6.000E-05 3.000E+00 3.000E+00 1.040E+03 1.025E+03                                         2.500E-02 4.500E-02
     8  6.000E-05 6.000E-05 3.000E+00 3.000E+00 1.025E+03 9.900E+02                                         2.500E-02 4.500E-02
     9  3.000E-05 3.000E-05 3.000E+00 3.000E+00 1.070E+03 1.050E+03 2.000E+01 2.000E+01                     3.000E-02
    10  3.000E-05 3.000E-05 3.000E+00 3.000E+00 1.083E+03 1.077E+03 2.000E+01 2.000E+01                     3.000E-02

  EIGHT POINT CROSS-SECTION DATA FOR SEGMENTS WITH ICALC = 2
    X VALUES X VALUES START FROM LEFT SIDE LOOKING DOWNSTREAM

     SEGMENT NO.        X1        X2        X3        X4        X5        X6        X7        X8
            7      0.000E+00 1.000E+01 8.000E+01 1.000E+02 1.500E+02 1.700E+02 2.400E+02 2.500E+02
            8      0.000E+00 1.000E+01 8.000E+01 1.000E+02 1.500E+02 1.700E+02 2.400E+02 2.500E+02

    Z VALUES ARE RELATIVE TO STREAMBED ELEVATION

     SEGMENT NO.          Z1        Z2        Z3        Z4        Z5        Z6        Z7        Z8
            7      2.000E+01 1.300E+01 1.000E+01 2.000E+00 0.000E+00 1.000E+01 1.300E+01 2.000E+01
            8      2.500E+01 1.700E+01 1.300E+01 4.000E+00 0.000E+00 1.000E+01 1.600E+01 2.000E+01

 STREAMFLOW RELATION WITH DEPTH IS BASED ON EQUATION Q = CDPTH*(DEPTH)**FDPTH
 STREAMFLOW RELATION WITH WIDTH IS BASED ON EQUATION Q = AWDTH*(WIDTH)**BWDTH

 SEGMENT NO.      CDPTH     FDPTH    AWDTH     BWDTH

          5 3.000E-01 3.500E-01 3.800E+00 6.000E-01

 STREAMFLOW RELATION WITH DEPTH AND WIDTH IS BASED ON TABULATED VALUES

  SEGMENT NO.   STREAMFLOW       DEPTH       WIDTH

          1     5.0000E-01   2.5000E-01   3.0000E+00
          1     1.0000E+00   4.0000E-01   3.5000E+00
          1     2.0000E+00   5.5000E-01   4.2000E+00
          1     4.0000E+00   7.0000E-01   5.3000E+00
          1     7.0000E+00   8.0000E-01   7.0000E+00
          1     1.0000E+01   9.0000E-01   8.5000E+00
          1     2.0000E+01   1.1000E+00   1.2000E+01
          1     3.0000E+01   1.2500E+00   1.4000E+01
          1     5.0000E+01   1.4000E+00   1.7000E+01
          1     7.5000E+01   1.7000E+00   2.0000E+01
          1     1.0000E+02   1.8000E+00   2.2000E+01



TABULAR INFLOWS WERE READ FOR SEGMENT      1
FROM FILE UNIT NUMBER     55

          TIMES                    INFLOWS
         0.0000000000E+00     0.2000000000E+02
         0.6440000000E+06     0.1800000000E+02
         0.1290000000E+07     0.1800000000E+02
         0.1930000000E+07     0.5700000000E+02
         0.2580000000E+07     0.2200000000E+02
         0.3220000000E+07     0.2100000000E+02
         0.3860000000E+07     0.2600000000E+02
         0.4510000000E+07     0.2500000000E+02
         0.5150000000E+07     0.2500000000E+02
         0.5800000000E+07     0.2700000000E+02
         0.6440000000E+07     0.2400000000E+02
         0.7080000000E+07     0.2300000000E+02
         0.7730000000E+07     0.2400000000E+02
         0.8370000000E+07     0.2400000000E+02
         0.9020000000E+07     0.2500000000E+02
         0.9660000000E+07     0.2300000000E+02
         0.1030000000E+08     0.2100000000E+02
         0.1090000000E+08     0.3900000000E+02
         0.1160000000E+08     0.2900000000E+02
         0.1220000000E+08     0.2520000000E+04
         0.1290000000E+08     0.1600000000E+03
         0.1350000000E+08     0.1000000000E+03
         0.1420000000E+08     0.7300000000E+02
         0.1480000000E+08     0.5030000000E+03
         0.1550000000E+08     0.9580000000E+03
         0.1610000000E+08     0.3040000000E+03
         0.1670000000E+08     0.1670000000E+03
         0.1740000000E+08     0.1190000000E+03
         0.1800000000E+08     0.1750000000E+03
         0.1870000000E+08     0.6270000000E+03
         0.1930000000E+08     0.2780000000E+03
         0.2000000000E+08     0.2880000000E+03
         0.2060000000E+08     0.2040000000E+03
         0.2130000000E+08     0.1480000000E+03
         0.2190000000E+08     0.3610000000E+03
         0.2250000000E+08     0.1650000000E+03
         0.2320000000E+08     0.1280000000E+03
         0.2380000000E+08     0.1170000000E+03
         0.2450000000E+08     0.7900000000E+02
         0.2510000000E+08     0.6100000000E+02
         0.2580000000E+08     0.4600000000E+02
         0.2640000000E+08     0.3700000000E+02
         0.2700000000E+08     0.2500000000E+02
         0.2770000000E+08     0.1900000000E+02
         0.2830000000E+08     0.1400000000E+02
         0.2900000000E+08     0.1500000000E+02
         0.2960000000E+08     0.1100000000E+02
         0.3030000000E+08     0.8000000000E+01
         0.3090000000E+08     0.4400000095E+01
         0.3160000000E+08     0.2500000000E+01



            AREAL INFILTRATION RATE
 READING ON UNIT   19 WITH FORMAT: (10F4.0)            

            1           2           3           4           5           6           7           8           9          10
 ........................................................................................................................
   1   1.0000E-10  2.0000E-10   0.000       0.000       0.000       0.000       0.000       0.000       0.000       0.000    
   2   2.0000E-10  1.0000E-10  2.0000E-10   0.000       0.000      8.0000E-10  8.0000E-10  5.0000E-10   0.000       0.000    
   3    0.000      5.0000E-10  1.0000E-10  1.0000E-10  8.0000E-10  8.0000E-10  5.0000E-10  5.0000E-10   0.000       0.000    
   4   8.0000E-10  5.0000E-10  1.0000E-10  1.0000E-10  1.0000E-10  1.0000E-10  1.0000E-10  1.0000E-10  2.0000E-10   0.000    
   5   8.0000E-10  5.0000E-10  1.0000E-10  1.0000E-10  1.0000E-10  1.0000E-10  1.0000E-10  1.0000E-10  1.0000E-10  1.0000E-10
   6   8.0000E-10  5.0000E-10  5.0000E-10  2.0000E-10  2.0000E-10  1.0000E-10  1.0000E-10  1.0000E-10  1.0000E-10  5.0000E-10
   7   8.0000E-10  5.0000E-10  5.0000E-10  2.0000E-10  2.0000E-10  1.0000E-10  1.0000E-10  2.0000E-10  2.0000E-10   0.000    
   8    0.000      5.0000E-10  5.0000E-10  2.0000E-10  2.0000E-10  1.0000E-10  1.0000E-10  2.0000E-10  5.0000E-10   0.000    
   9    0.000      5.0000E-10  5.0000E-10  2.0000E-10  2.0000E-10  1.0000E-10  1.0000E-10  2.0000E-10  5.0000E-10   0.000    
  10    0.000      5.0000E-10  5.0000E-10  2.0000E-10  2.0000E-10  1.0000E-10  1.0000E-10  2.0000E-10  5.0000E-10  8.0000E-10
  11    0.000      1.0000E-10  1.0000E-10  1.0000E-10  1.0000E-10  1.0000E-10  1.0000E-10  2.0000E-10  5.0000E-10   0.000    
  12   1.0000E-10  1.0000E-10  1.0000E-10  1.0000E-10  1.0000E-10  1.0000E-10  1.0000E-10  1.0000E-10  2.0000E-10   0.000    
  13   1.0000E-10  1.0000E-10  2.0000E-10  2.0000E-10  2.0000E-10  2.0000E-10  2.0000E-10  1.0000E-10  1.0000E-10   0.000    
  14    0.000      2.0000E-10  5.0000E-10  5.0000E-10  5.0000E-10  5.0000E-10  5.0000E-10  2.0000E-10  1.0000E-10   0.000    
  15    0.000       0.000      8.0000E-10  8.0000E-10  8.0000E-10  8.0000E-10   0.000       0.000       0.000       0.000    

                  ET RATE =  5.000000E-08

      ET EXTINCTION DEPTH =   15.0000    



           EXTINCTION WATER CONTENT
 READING ON UNIT   19 WITH FORMAT: (10F4.0)            

            1           2           3           4           5           6           7           8           9          10
 ........................................................................................................................
   1   0.1000      0.1000       0.000       0.000       0.000       0.000       0.000       0.000       0.000       0.000    
   2   0.2000      0.1000      0.1000       0.000       0.000      0.2000      0.2000      0.2000       0.000       0.000    
   3    0.000      0.2000      0.1000      0.1000      0.2000      0.2000      0.2000      0.2000       0.000       0.000    
   4   0.2000      0.2000      0.2000      0.1000      0.1000      0.1000      0.2000      0.2000      0.2000      0.1000    
   5   0.2000      0.2000      0.2000      0.1000      0.1000      0.1000      0.1000      0.1000      0.1000      0.1000    
   6   0.2000      0.2000      0.2000      0.1000      0.1000      0.1000      0.1000      0.1000      0.2000      0.2000    
   7   0.2000      0.2000      0.2000      0.1000      0.1000      0.1000      0.1000      0.1000      0.2000       0.000    
   8    0.000      0.2000      0.2000      0.1000      0.1000      0.1000      0.1000      0.2000      0.2000       0.000    
   9    0.000      0.2000      0.2000      0.1000      0.1000      0.1000      0.1000      0.2000      0.2000       0.000    
  10    0.000      0.2000      0.2000      0.1000      0.1000      0.1000      0.1000      0.2000      0.2000      0.2000    
  11    0.000      0.2000      0.2000      0.1000      0.1000      0.1000      0.1000      0.2000      0.2000       0.000    
  12   0.2000      0.2000      0.1000      0.1000      0.1000      0.1000      0.1000      0.2000      0.2000       0.000    
  13   0.1000      0.1000      0.1000      0.1000      0.1000      0.1000      0.1000      0.1000      0.1000       0.000    
  14    0.000      0.2000      0.2000      0.2000      0.2000      0.2000      0.2000      0.2000      0.1000       0.000    
  15    0.000       0.000      0.2000      0.2000      0.2000      0.2000       0.000       0.000       0.000       0.000    


 LAKE PACKAGE ACTIVE:  CALCULATED LAKE STAGE FOR EACH TIME STEP WILL BE STORED IN HNEW ARRAY.



 INITIAL LAKE STAGE:  LAKE    STAGE    SS MIN    SS MAX

                        1  1074.500  1074.500  1090.000




 If any subsequent steady-state stress periods, min. and max. stages for each lake will be read in Record 9a.




 STAGE/VOLUME RELATION FOR LAKE  1

      STAGE        VOLUME        AREA

   1.07450E+03   0.00000E+00   0.00000E+00
   1.07456E+03   1.06000E+04   1.67000E+05
   1.07463E+03   3.17000E+04   3.33000E+05
   1.07469E+03   6.33000E+04   5.00000E+05
   1.07475E+03   1.06000E+05   6.67000E+05
   1.07482E+03   1.58000E+05   8.33000E+05
   1.07488E+03   2.22000E+05   1.00000E+06
   1.07494E+03   2.96000E+05   1.17000E+06
   1.07501E+03   3.80000E+05   1.33000E+06
   1.07507E+03   4.75000E+05   1.50000E+06
   1.07513E+03   5.81000E+05   1.67000E+06
   1.07520E+03   6.97000E+05   1.83000E+06
   1.07526E+03   8.23000E+05   2.00000E+06
   1.07532E+03   9.61000E+05   2.17000E+06
   1.07539E+03   1.11000E+06   2.33000E+06
   1.07545E+03   1.27000E+06   2.50000E+06
   1.07551E+03   1.44000E+06   2.67000E+06
   1.07558E+03   1.61000E+06   2.83000E+06
   1.07564E+03   1.80000E+06   3.00000E+06
   1.07570E+03   2.01000E+06   3.17000E+06
   1.07577E+03   2.22000E+06   3.33000E+06
   1.07583E+03   2.44000E+06   3.50000E+06
   1.07589E+03   2.67000E+06   3.67000E+06
   1.07596E+03   2.91000E+06   3.83000E+06
   1.07602E+03   3.17000E+06   4.00000E+06
   1.07608E+03   3.43000E+06   4.17000E+06
   1.07615E+03   3.70000E+06   4.33000E+06
   1.07621E+03   3.99000E+06   4.50000E+06
   1.07627E+03   4.29000E+06   4.67000E+06
   1.07634E+03   4.59000E+06   4.83000E+06
   1.07640E+03   4.91000E+06   5.00000E+06
   1.07646E+03   5.24000E+06   5.17000E+06
   1.07653E+03   5.57000E+06   5.33000E+06
   1.07659E+03   5.92000E+06   5.50000E+06
   1.07665E+03   6.28000E+06   5.67000E+06
   1.07672E+03   6.65000E+06   5.83000E+06
   1.07678E+03   7.03000E+06   6.00000E+06
   1.07684E+03   7.42000E+06   6.17000E+06
   1.07691E+03   7.82000E+06   6.33000E+06
   1.07697E+03   8.23000E+06   6.50000E+06
   1.07703E+03   8.66000E+06   6.67000E+06
   1.07710E+03   9.09000E+06   6.83000E+06
   1.07716E+03   9.53000E+06   7.00000E+06
   1.07722E+03   9.99000E+06   7.17000E+06
   1.07729E+03   1.04000E+07   7.33000E+06
   1.07735E+03   1.09000E+07   7.50000E+06
   1.07741E+03   1.14000E+07   7.67000E+06
   1.07748E+03   1.19000E+07   7.83000E+06
   1.07754E+03   1.24000E+07   8.00000E+06
   1.07760E+03   1.29000E+07   8.17000E+06
   1.07767E+03   1.35000E+07   8.33000E+06
   1.07773E+03   1.40000E+07   8.50000E+06
   1.07779E+03   1.45000E+07   8.67000E+06
   1.07786E+03   1.51000E+07   8.83000E+06
   1.07792E+03   1.57000E+07   9.00000E+06
   1.07798E+03   1.63000E+07   9.17000E+06
   1.07805E+03   1.68000E+07   9.33000E+06
   1.07811E+03   1.74000E+07   9.50000E+06
   1.07817E+03   1.81000E+07   9.67000E+06
   1.07824E+03   1.87000E+07   9.83000E+06
   1.07830E+03   1.93000E+07   1.00000E+07
   1.07836E+03   2.00000E+07   1.02000E+07
   1.07843E+03   2.06000E+07   1.03000E+07
   1.07849E+03   2.13000E+07   1.05000E+07
   1.07855E+03   2.20000E+07   1.07000E+07
   1.07862E+03   2.26000E+07   1.08000E+07
   1.07868E+03   2.33000E+07   1.10000E+07
   1.07874E+03   2.40000E+07   1.12000E+07
   1.07881E+03   2.48000E+07   1.13000E+07
   1.07887E+03   2.55000E+07   1.15000E+07
   1.07893E+03   2.62000E+07   1.17000E+07
   1.07900E+03   2.70000E+07   1.18000E+07
   1.07906E+03   2.77000E+07   1.20000E+07
   1.07912E+03   2.85000E+07   1.22000E+07
   1.07919E+03   2.93000E+07   1.23000E+07
   1.07925E+03   3.01000E+07   1.25000E+07
   1.07931E+03   3.09000E+07   1.27000E+07
   1.07938E+03   3.17000E+07   1.28000E+07
   1.07944E+03   3.25000E+07   1.30000E+07
   1.07950E+03   3.34000E+07   1.32000E+07
   1.07957E+03   3.42000E+07   1.33000E+07
   1.07963E+03   3.51000E+07   1.35000E+07
   1.07969E+03   3.59000E+07   1.37000E+07
   1.07976E+03   3.68000E+07   1.38000E+07
   1.07982E+03   3.77000E+07   1.40000E+07
   1.07988E+03   3.86000E+07   1.42000E+07
   1.07995E+03   3.95000E+07   1.43000E+07
   1.08001E+03   4.04000E+07   1.45000E+07
   1.08007E+03   4.13000E+07   1.47000E+07
   1.08014E+03   4.23000E+07   1.48000E+07
   1.08020E+03   4.32000E+07   1.50000E+07
   1.08026E+03   4.42000E+07   1.52000E+07
   1.08033E+03   4.52000E+07   1.53000E+07
   1.08039E+03   4.61000E+07   1.55000E+07
   1.08045E+03   4.71000E+07   1.57000E+07
   1.08052E+03   4.81000E+07   1.58000E+07
   1.08058E+03   4.91000E+07   1.60000E+07
   1.08064E+03   5.02000E+07   1.62000E+07
   1.08071E+03   5.12000E+07   1.63000E+07
   1.08077E+03   5.22000E+07   1.65000E+07
   1.08083E+03   5.33000E+07   1.67000E+07
   1.08090E+03   5.44000E+07   1.68000E+07
   1.08096E+03   5.54000E+07   1.70000E+07
   1.08102E+03   5.65000E+07   1.72000E+07
   1.08109E+03   5.76000E+07   1.73000E+07
   1.08115E+03   5.87000E+07   1.75000E+07
   1.08121E+03   5.99000E+07   1.77000E+07
   1.08128E+03   6.10000E+07   1.78000E+07
   1.08134E+03   6.21000E+07   1.80000E+07
   1.08140E+03   6.33000E+07   1.82000E+07
   1.08147E+03   6.44000E+07   1.83000E+07
   1.08153E+03   6.56000E+07   1.85000E+07
   1.08159E+03   6.68000E+07   1.87000E+07
   1.08166E+03   6.80000E+07   1.88000E+07
   1.08172E+03   6.92000E+07   1.90000E+07
   1.08178E+03   7.04000E+07   1.92000E+07
   1.08185E+03   7.16000E+07   1.93000E+07
   1.08191E+03   7.29000E+07   1.95000E+07
   1.08197E+03   7.41000E+07   1.97000E+07
   1.08204E+03   7.54000E+07   1.98000E+07
   1.08210E+03   7.66000E+07   2.00000E+07
   1.08216E+03   7.79000E+07   2.02000E+07
   1.08223E+03   7.92000E+07   2.03000E+07
   1.08229E+03   8.05000E+07   2.05000E+07
   1.08235E+03   8.18000E+07   2.07000E+07
   1.08242E+03   8.31000E+07   2.08000E+07
   1.08248E+03   8.45000E+07   2.10000E+07
   1.08254E+03   8.58000E+07   2.12000E+07
   1.08261E+03   8.71000E+07   2.13000E+07
   1.08267E+03   8.85000E+07   2.15000E+07
   1.08273E+03   8.99000E+07   2.17000E+07
   1.08280E+03   9.13000E+07   2.18000E+07
   1.08286E+03   9.27000E+07   2.20000E+07
   1.08292E+03   9.41000E+07   2.22000E+07
   1.08299E+03   9.55000E+07   2.23000E+07
   1.08305E+03   9.69000E+07   2.25000E+07
   1.08311E+03   9.83000E+07   2.27000E+07
   1.08318E+03   9.98000E+07   2.28000E+07
   1.08324E+03   1.01000E+08   2.30000E+07
   1.08330E+03   1.03000E+08   2.32000E+07
   1.08337E+03   1.04000E+08   2.33000E+07
   1.08343E+03   1.06000E+08   2.35000E+07
   1.08349E+03   1.07000E+08   2.37000E+07
   1.08356E+03   1.09000E+08   2.38000E+07
   1.08362E+03   1.10000E+08   2.40000E+07
   1.08368E+03   1.12000E+08   2.42000E+07
   1.08375E+03   1.13000E+08   2.43000E+07
   1.08381E+03   1.15000E+08   2.45000E+07
   1.08387E+03   1.16000E+08   2.47000E+07
   1.08394E+03   1.18000E+08   2.48000E+07
   1.08400E+03   1.20000E+08   2.50000E+07



                      LAKE ID ARRAY FOR LAYER   1
 READING ON UNIT   33 WITH FORMAT: (20I4)              

                1           2           3           4           5           6           7           8           9          10
 ............................................................................................................................
   1            0           0           0           0           0           0           0           0           0           0
   2            0           0           0           0           0           0           0           0           0           0
   3            0           0           0           0           0           0           0           0           0           0
   4            0           0           0           0           1           0           0           0           0           0
   5            0           0           0           0           0           0           0           0           0           0
   6            0           0           0           0           0           0           0           0           0           0
   7            0           0           0           0           0           0           0           0           0           0
   8            0           0           0           0           0           0           0           0           0           0
   9            0           0           0           0           0           0           0           0           0           0
  10            0           0           0           0           0           0           0           0           0           0
  11            0           0           0           0           0           0           0           0           0           0
  12            0           0           0           0           0           0           0           0           0           0
  13            0           0           0           0           0           0           0           0           0           0
  14            0           0           0           0           0           0           0           0           0           0
  15            0           0           0           0           0           0           0           0           0           0



                      LAKE ID ARRAY FOR LAYER   2
 READING ON UNIT   33 WITH FORMAT: (20I4)              

                1           2           3           4           5           6           7           8           9          10
 ............................................................................................................................
   1            0           0           0           0           0           0           0           0           0           0
   2            0           0           0           0           0           0           0           0           0           0
   3            0           0           0           0           0           0           0           0           0           0
   4            0           0           0           0           0           0           0           0           0           0
   5            0           0           0           0           0           0           0           0           0           0
   6            0           0           0           0           0           0           0           0           0           0
   7            0           0           0           0           0           0           0           0           0           0
   8            0           0           0           0           0           0           0           0           0           0
   9            0           0           0           0           0           0           0           0           0           0
  10            0           0           0           0           0           0           0           0           0           0
  11            0           0           0           0           0           0           0           0           0           0
  12            0           0           0           0           0           0           0           0           0           0
  13            0           0           0           0           0           0           0           0           0           0
  14            0           0           0           0           0           0           0           0           0           0
  15            0           0           0           0           0           0           0           0           0           0





   LAKEBED LEAKANCE ARRAY =  5.000000E-02 FOR LAYER   1

   LAKEBED LEAKANCE ARRAY =  5.000000E-02 FOR LAYER   2

       LOCATIONS, LAKE #, INTERFACE TYPE FOR GRID CELLS ADJACENT TO LAKES:
     -----------------------------------------------------------------------
     LAYER #    ROW #    COLUMN #   LAKE #  INTERFACE TYPE  LAKEBED LEAKANCE
         1         4         4         1         2             5.000E-02
         1         3         5         1         3             5.000E-02
         2         4         5         1         6             5.000E-02
         1         5         5         1         4             5.000E-02
         1         4         6         1         1             5.000E-02

     NUMBER OF LAKE-AQUIFER CELL INTERFACES =     5

 NUMBER OF CONNECTED LAKE SYSTEMS IN SIMULATION IS   0

 LAKE       PRECIP     EVAP     RUNOFF   WITHDRAW   BOTTOM     AREA
----------------------------------------------------------------------
   1     0.000E+00 4.000E-08 0.000E+00  0.000E+00 1.074E+03 2.500E+07




         C               INTERFACE CONDUCTANCES BETWEEN LAKE AND AQUIFER CELLS
   L     O          (IF TYPE = 6, CONDUCTANCE (L^2/T) IS BETWEEN AQUIFER CELL AND OVERLYING LAKE CELL.)
   A     L  L  T    (IF TYPE = 1 TO 4, CONDUCTANCES ARE PER UNIT SATURATED THICKNESS (L/T).)
   Y  R  U  A  Y
   E  O  M  K  P                        LAKEBED      C O N D U C T A N C E S
   R  W  N  E  E     DELTA Y   DELTA X  LEAKANCE   LAKEBED   AQUIFER  COMBINED
 _______________________________________________________________________________
   1  4  4  1  2    5.00E+03  5.00E+03  5.00E-02  2.50E+02  6.00E-03  6.00E-03
   1  3  5  1  3    5.00E+03  5.00E+03  5.00E-02  2.50E+02  1.20E-03  1.20E-03
   2  4  5  1  6    5.00E+03  5.00E+03  5.00E-02  1.25E+06  9.42E+00  9.42E+00
   1  5  5  1  4    5.00E+03  5.00E+03  5.00E-02  2.50E+02  6.00E-03  6.00E-03
   1  4  6  1  1    5.00E+03  5.00E+03  5.00E-02  2.50E+02  6.00E-03  6.00E-03
 
      DEAD POOL STORAGE FOR LAKE    1 BELOW SEGMENT   10 IS EQUAL TO     0.1200000000E+09
 
      LAKE     INFLOWING STREAM SEGMENT
         1                  9

 MAXIMUM NUMBER OF STREAMS INFLOWING TO A LAKE IS    1

      LAKE     OUTFLOWING STREAM SEGMENT
         1                 10

 MAXIMUM NUMBER OF STREAMS OUTFLOWING FROM A LAKE IS    1

 
 SOLVING FOR HEAD 
                                                   Max.-Head-Change                         Max.-Flux-Residual
  Residual-Control   Outer-Iter.   Inner-Iter.     Column Row Layer    Maximum-Head-Change  Column Row Layer    Maximum-Flux-Residual          L2-NORM 
          0                 1           3            10   10     2      -0.1026992954E+02       3   13    2        -0.2143134765E+02      0.2863072413E+02
          0                 2           4             8    4     2      -0.4056888520E+01       4   13    2        -0.4174205339E+01      0.4696282175E+01
          0                 3           3             8    4     2       0.2386763179E+00       4   13    2        -0.1302825851E+01      0.1321733933E+01
          0                 4           2             4   13     2       0.1812589401E-01       4   13    2         0.1167419299E+00      0.1222798372E+00
          0                 5           1             1   13     2       0.9931080994E-03       4   13    2        -0.6103619488E-02      0.8416596891E-02

    ------------------------------------------------
       NWT REQUIRED            5 OUTER ITERATIONS 
       AND A TOTAL OF         13 INNER ITERATIONS.
    ------------------------------------------------

 OUTPUT CONTROL FOR STRESS PERIOD    1   TIME STEP    1
    PRINT BUDGET
    PRINT HEAD FOR ALL LAYERS
    SAVE HEAD FOR ALL LAYERS
    SAVE BUDGET

            WELLS   PERIOD    1   STEP   1
 WELL      1   LAYER   2   ROW     6   COL     4   RATE    -2.00000    
 WELL      2   LAYER   2   ROW     6   COL     5   RATE    -2.00000    
 WELL      3   LAYER   2   ROW     7   COL     4   RATE    -2.00000    
 WELL      4   LAYER   2   ROW     7   COL     5   RATE    -2.00000    
 WELL      5   LAYER   2   ROW     8   COL     4   RATE    -2.00000    
 WELL      6   LAYER   2   ROW     8   COL     5   RATE    -2.00000    
 WELL      7   LAYER   2   ROW     9   COL     4   RATE    -2.00000    
 WELL      8   LAYER   2   ROW     9   COL     5   RATE    -2.00000    
 WELL      9   LAYER   2   ROW    10   COL     4   RATE    -2.00000    
 WELL     10   LAYER   2   ROW    10   COL     5   RATE    -2.00000    

  HEAD DEP BOUNDS   PERIOD    1   STEP     1
 BOUNDARY      1   LAYER   2   ROW    13   COL     1   RATE   -0.286583    
 BOUNDARY      2   LAYER   2   ROW    14   COL     9   RATE    0.215996    



 STREAM LISTING     PERIOD      1   STEP        1

 LAYER ROW COL. STREAM  RCH.  FLOW INTO     FLOW TO   FLOW OUT OF   OVRLND.     DIRECT     STREAM       STREAM     STREAM     STREAM   STREAMBED  STREAMBED
                SEG.NO.  NO.  STRM. RCH.    AQUIFER    STRM. RCH.    RUNOFF     PRECIP       ET          HEAD       DEPTH      WIDTH   CONDCTNC.   GRADIENT

   2    1    1     1     1    2.8209E+01  2.0699E+00   2.6139E+01  0.000E+00  0.000E+00  0.000E+00  1.09426E+03  1.212E+00  1.348E+01  6.067E-01  1.137E+00
   2    2    2     1     2    2.6139E+01  3.7684E+00   2.2371E+01  0.000E+00  0.000E+00  0.000E+00  1.08923E+03  1.169E+00  1.291E+01  9.039E-01  1.390E+00
   2    3    3     1     3    2.2371E+01  3.0108E+00   1.9360E+01  0.000E+00  0.000E+00  0.000E+00  1.08353E+03  1.115E+00  1.219E+01  7.317E-01  1.372E+00
   2    3    4     1     4    1.9360E+01  2.5762E+00   1.6784E+01  0.000E+00  0.000E+00  0.000E+00  1.07848E+03  1.068E+00  1.141E+01  6.332E-01  1.356E+00
   2    4    5     2     1    6.7841E+00  2.7166E+00   4.0674E+00  0.000E+00  0.000E+00  0.000E+00  1.07242E+03  4.829E-01  1.200E+01  7.800E-01  1.161E+00
   2    5    6     2     2    4.0674E+00  2.0056E+00   2.0618E+00  0.000E+00  0.000E+00  0.000E+00  1.06685E+03  3.427E-01  1.200E+01  6.000E-01  1.114E+00
   2    6    6     2     3    2.0618E+00  1.9116E+00   1.5021E-01  0.000E+00  0.000E+00  0.000E+00  1.06198E+03  1.859E-01  1.200E+01  6.000E-01  1.062E+00
   2    7    6     2     4    1.5021E-01  1.5021E-01   0.0000E+00  0.000E+00  0.000E+00  0.000E+00  1.05709E+03  1.263E-02  1.200E+01  6.000E-01  1.004E+00
   2    8    6     2     5    0.0000E+00  0.0000E+00   0.0000E+00  0.000E+00  0.000E+00  0.000E+00  1.05236E+03  0.000E+00  1.200E+01  6.000E-01  1.000E+00
   2    3    5     3     1    1.0000E+01  2.8252E+00   7.1748E+00  0.000E+00  0.000E+00  0.000E+00  1.07555E+03  1.909E+00  9.636E+00  7.227E-01  1.955E+00
   2    3    6     3     2    7.1748E+00  2.4905E+00   4.6843E+00  0.000E+00  0.000E+00  0.000E+00  1.07264E+03  1.727E+00  8.909E+00  6.682E-01  1.864E+00
   2    3    7     3     3    4.6843E+00  1.9718E+00   2.7125E+00  0.000E+00  0.000E+00  0.000E+00  1.06987E+03  1.555E+00  8.218E+00  5.547E-01  1.777E+00
   2    4    8     3     4    2.7125E+00  2.2567E+00   4.5579E-01  0.000E+00  0.000E+00  0.000E+00  1.06682E+03  1.364E+00  7.455E+00  6.709E-01  1.682E+00
   2    5    8     3     5    4.5579E-01  4.5579E-01   0.0000E+00  0.000E+00  0.000E+00  0.000E+00  1.06362E+03  0.000E+00  6.655E+00  4.991E-01  1.582E+00
   2    6    8     3     6    0.0000E+00  0.0000E+00   0.0000E+00  0.000E+00  0.000E+00  0.000E+00  1.06055E+03  0.000E+00  6.145E+00  1.844E-01  1.000E+00
   2    5   10     4     1    1.0000E+01  9.0525E-01   9.0947E+00  0.000E+00  0.000E+00  0.000E+00  1.07835E+03  6.210E-01  1.000E+01  2.500E-01  1.207E+00
   2    5    9     4     2    9.0947E+00  1.7835E+00   7.3113E+00  0.000E+00  0.000E+00  0.000E+00  1.07148E+03  5.670E-01  1.000E+01  5.000E-01  1.189E+00
   2    6    8     4     3    7.3113E+00  1.2257E+00   6.0855E+00  0.000E+00  0.000E+00  0.000E+00  1.06368E+03  5.021E-01  1.000E+01  3.500E-01  1.167E+00
   2    6    8     5     1    6.0855E+00  1.4716E+00   4.6139E+00  0.000E+00  0.000E+00  0.000E+00  1.05854E+03  5.396E-01  1.039E+01  4.158E-01  1.180E+00
   2    7    7     5     2    4.6139E+00  1.4897E+00   3.1242E+00  0.000E+00  0.000E+00  0.000E+00  1.05398E+03  4.817E-01  8.557E+00  4.279E-01  1.161E+00
   2    8    7     5     3    3.1242E+00  8.2855E-01   2.2957E+00  0.000E+00  0.000E+00  0.000E+00  1.04968E+03  4.253E-01  6.911E+00  2.419E-01  1.142E+00
   2    8    6     5     4    2.2957E+00  4.9455E-01   1.8011E+00  0.000E+00  0.000E+00  0.000E+00  1.04664E+03  3.856E-01  5.843E+00  1.461E-01  1.129E+00
   2    9    6     6     1    1.8011E+00  1.8011E+00   0.0000E+00  0.000E+00  0.000E+00  0.000E+00  1.04278E+03  5.669E-02  1.200E+01  6.000E-01  1.019E+00
   2   10    7     6     2    0.0000E+00  0.0000E+00   0.0000E+00  0.000E+00  0.000E+00  0.000E+00  1.03818E+03  0.000E+00  1.200E+01  6.000E-01  1.000E+00
   2   11    7     6     3    0.0000E+00  0.0000E+00   0.0000E+00  0.000E+00  0.000E+00  0.000E+00  1.03364E+03  0.000E+00  1.200E+01  6.000E-01  1.000E+00
   2   12    7     6     4    0.0000E+00  0.0000E+00   0.0000E+00  0.000E+00  0.000E+00  0.000E+00  1.02909E+03  0.000E+00  1.200E+01  6.000E-01  5.998E-01
   2   13    7     6     5    0.0000E+00 -7.2162E-01   7.2162E-01  0.000E+00  0.000E+00  0.000E+00  1.02601E+03  9.601E-02  1.200E+01  2.400E-01 -1.002E+00
   2   14    9     7     1    1.5000E+02  3.0633E+00   1.4694E+02  0.000E+00  0.000E+00  0.000E+00  1.03986E+03  2.283E+00  5.527E+01  5.591E+00  1.826E-01
   2   13    8     7     2    1.4694E+02  4.2102E+00   1.4273E+02  0.000E+00  0.000E+00  0.000E+00  1.03476E+03  2.264E+00  5.519E+01  6.139E+00  2.286E-01
   2   13    7     7     3    1.4273E+02  3.6212E+00   1.3911E+02  0.000E+00  0.000E+00  0.000E+00  1.02966E+03  2.243E+00  5.509E+01  5.571E+00  2.167E-01
   2   13    6     8     1    1.3983E+02  1.7240E+00   1.3810E+02  0.000E+00  0.000E+00  0.000E+00  1.02461E+03  2.737E+00  3.969E+01  4.045E+00  1.421E-01
   2   13    5     8     2    1.3810E+02 -1.4658E+00   1.3957E+02  0.000E+00  0.000E+00  0.000E+00  1.01836E+03  2.736E+00  3.968E+01  4.043E+00 -1.208E-01
   2   13    4     8     3    1.3957E+02 -4.5010E+00   1.4407E+02  0.000E+00  0.000E+00  0.000E+00  1.01213E+03  2.758E+00  3.999E+01  4.076E+00 -3.681E-01
   2   13    3     8     4    1.4407E+02 -5.2628E+00   1.4933E+02  0.000E+00  0.000E+00  0.000E+00  1.00592E+03  2.793E+00  4.051E+01  4.128E+00 -4.250E-01
   2   13    2     8     5    1.4933E+02 -3.2311E+00   1.5256E+02  0.000E+00  0.000E+00  0.000E+00  9.99698E+02  2.824E+00  4.094E+01  4.172E+00 -2.582E-01
   2   13    1     8     6    1.5256E+02 -2.0778E+00   1.5464E+02  0.000E+00  0.000E+00  0.000E+00  9.94717E+02  2.842E+00  4.121E+01  2.520E+00 -2.749E-01
   2    4    5     9     1    0.0000E+00  0.0000E+00   0.0000E+00  0.000E+00  0.000E+00  0.000E+00  1.06000E+03  0.000E+00  2.000E+01  2.000E-03  1.000E+00
   2    4    5    10     1    0.0000E+00  0.0000E+00   0.0000E+00  0.000E+00  0.000E+00  0.000E+00  1.08000E+03  0.000E+00  2.000E+01  2.000E-03  1.000E+00



 ..........LAKE  1 IS DRY..........

     SECTIONS OF THE LAKE BOTTOM HAVE BECOME DRY.  THE DRYSECTIONS
     LIE ABOVE THE FOLLOWING  1 AQUIFER CELLS (LAYER,ROW,COLUMN):
     (  2,  4,  5)  (

 PERIOD     1     TIME STEP     1     TIME STEP LENGTH  2.6280E+06
 PERIOD TIME  2.6280E+06     TOTAL SIMULATION TIME  2.6280E+06


                 HYDROLOGIC BUDGET SUMMARIES FOR SIMULATED LAKES
     (ALL FLUID FLUXES ARE VOLUMES ADDED TO THE LAKE DURING PRESENT TIME STEP)
     ----------------------------------------------------------------------------------------
 LAKE    STAGE         VOLUME     VOL. CHANGE      PRECIP     EVAPORATION    SPECIFIED RUNOFF     COMPUTED RUNOFF    TOTAL RUNOFF
   1  1.074500E+03  0.000000E+00     N/A (SS)   0.000000E+00  0.000000E+00   0.000000E+00          0.000000E+00      0.000000E+00

            GROUND WATER            SURFACE WATER        WATER          UZF INFIL.
 LAKE    INFLOW     OUTFLOW      INFLOW     OUTFLOW       USE        FROM LAKE
   1  0.0000E+00  0.0000E+00  0.0000E+00  0.0000E+00  0.0000E+00       0.0000E+00

      CONNECTED LAKE   TIME-STEP         STAGE-CHANGE          PERCENT
 LAKE    INFLUX      SURFACE AREA   TIME STEP  CUMULATIVE    DISCREPANCY
   1   0.0000E+00     0.0000E+00     N/A (SS)   N/A (SS)        0.000
 --------------------------------------------------------------------------------



            CUMULATIVE HYDROLOGIC BUDGET SUMMARIES FOR SIMULATED LAKES
     (ALL FLUID FLUXES ARE SUMS OF VOLUMES ADDED TO THE LAKE SINCE INITIAL TIME)
     ---------------------------------------------------------------------------
 LAKE       PRECIP       EVAP     SPECIFIED RUNOFF   COMPUTED RUNOFF   TOTAL RUNOFF
   1     0.0000E+00  0.0000E+00       0.0000E+00       0.0000E+00       0.0000E+00

            GROUND WATER            SURFACE WATER       UZF INFIL.
 LAKE    INFLOW     OUTFLOW      INFLOW     OUTFLOW     FROM LAKE
   1  0.0000E+00  0.0000E+00  0.0000E+00  0.0000E+00    0.0000E+00

         WATER    CONNECTED LAKE   CHANGE       PERCENT
 LAKE     USE         INFLUX       IN VOL.    DISCREPANCY
   1   0.0000E+00   0.0000E+00    N/A (SS)       0.000
 --------------------------------------------------------------------------------

 UBDSV3 SAVING "           GW ET" ON UNIT  61 AT TIME STEP 1, STRESS PERIOD 1
 UBDSV3 SAVING "    UZF RECHARGE" ON UNIT  61 AT TIME STEP 1, STRESS PERIOD 1
 UBDSV3 SAVING " SURFACE LEAKAGE" ON UNIT  61 AT TIME STEP 1, STRESS PERIOD 1
 UBDSV3 SAVING "       HORT+DUNN" ON UNIT  61 AT TIME STEP 1, STRESS PERIOD 1
 UBDSV3 SAVING "  STORAGE CHANGE" ON UNIT  61 AT TIME STEP 1, STRESS PERIOD 1


UNSATURATED ZONE PACKAGE VOLUMETRIC BUDGET FOR  TIME STEP     1 STRESS PERIOD    1
  ------------------------------------------------------------------------------



     CUMULATIVE VOLUMES      L**3       RATES FOR THIS TIME STEP      L**3/T
     ------------------                 ------------------------

           IN:                                      IN:
           ---                                      ---
        INFILTRATION =     2220660.0000          INFILTRATION =           0.8450

          OUT:                                     OUT:
          ----                                     ----
              UZF ET =       0.0000E+00                UZF ET =       0.0000E+00
        UZF RECHARGE =     2220660.0000          UZF RECHARGE =           0.8450

            IN - OUT =       0.0000E+00              IN - OUT =       0.0000E+00

          STORAGE:                                 STORAGE:
          --------                                 --------
      STORAGE CHANGE =       0.0000E+00        STORAGE CHANGE =       0.0000E+00

 PERCENT DISCREPANCY IS DIFFERENCE BETWEEN IN-OUT MINUS CHANGE IN STORAGE
 DIVIDED BY THE AVERAGE OF IN AND OUT TIMES 100

 PERCENT DISCREPANCY =           0.00     PERCENT DISCREPANCY =           0.00






1
              HEAD IN LAYER 1 AT END OF TIME STEP 1 IN STRESS PERIOD 1
  ---------------------------------------------------------------------------

           1       2       3       4       5       6       7       8       9      10
 ...................................................................................
   1  6999.00 6999.00 6999.00 6999.00 6999.00 6999.00 6999.00 6999.00 6999.00 6999.00
   2  6999.00 6999.00 6999.00 6999.00 6999.00 6999.00 6999.00 6999.00 6999.00 6999.00
   3  6999.00 6999.00 6999.00 6999.00 6999.00 6999.00 6999.00 6999.00 6999.00 6999.00
   4  6999.00 6999.00 6999.00 6999.00 6999.00 6999.00 6999.00 6999.00 6999.00 6999.00
   5  6999.00 6999.00 6999.00 6999.00 6999.00 6999.00 6999.00 6999.00 6999.00 6999.00
   6  6999.00 6999.00 6999.00 6999.00 6999.00 6999.00 6999.00 6999.00 6999.00 6999.00
   7  6999.00 6999.00 6999.00 6999.00 6999.00 6999.00 6999.00 6999.00 6999.00 6999.00
   8  6999.00 6999.00 6999.00 6999.00 6999.00 6999.00 6999.00 6999.00 6999.00 6999.00
   9  6999.00 6999.00 6999.00 6999.00 6999.00 6999.00 6999.00 6999.00 6999.00 6999.00
  10  6999.00 6999.00 6999.00 6999.00 6999.00 6999.00 6999.00 6999.00 6999.00 6999.00
  11  6999.00 6999.00 6999.00 6999.00 6999.00 6999.00 6999.00 6999.00 6999.00 6999.00
  12  6999.00 6999.00 6999.00 6999.00 6999.00 6999.00 6999.00 6999.00 6999.00 6999.00
  13  6999.00 6999.00 6999.00 6999.00 6999.00 6999.00 6999.00 6999.00 6999.00 6999.00
  14  6999.00 6999.00 6999.00 6999.00 6999.00 6999.00 6999.00 6999.00 6999.00 6999.00
  15  6999.00 6999.00 6999.00 6999.00 6999.00 6999.00 6999.00 6999.00 6999.00 6999.00
1
              HEAD IN LAYER 2 AT END OF TIME STEP 1 IN STRESS PERIOD 1
  ---------------------------------------------------------------------------

           1       2       3       4       5       6       7       8       9      10
 ...................................................................................
   1  1090.85 1085.45 6999.00 6999.00 6999.00 6999.00 6999.00 6999.00 6999.00 6999.00
   2  1085.47 1079.69 1072.73 6999.00 6999.00 1062.10 1062.09 1061.65 6999.00 6999.00
   3  6999.00 1068.70 1065.48 1061.61 1061.68 1061.81 1062.15 1061.02 6999.00 6999.00
   4  1056.45 1058.93 1058.21 1055.32 1054.23 1053.39 1054.55 1058.56 1056.87 6999.00
   5  1052.24 1051.81 1050.88 1049.52 1049.40 1049.95 1049.89 1051.54 1054.85 1057.10
   6  1048.08 1046.52 1045.10 1044.01 1044.38 1046.20 1047.24 1049.30 1051.49 1055.37
   7  1045.05 1041.68 1040.09 1039.20 1039.89 1041.89 1043.90 1046.09 1047.78 6999.00
   8  6999.00 1036.56 1035.48 1034.81 1035.59 1037.64 1039.47 1042.37 1042.87 6999.00
   9  6999.00 1030.91 1030.58 1030.38 1031.37 1033.60 1034.78 1036.45 1037.97 6999.00
  10  6999.00 1025.28 1025.70 1026.33 1027.63 1029.73 1030.90 1032.35 1034.09 1034.49
  11  6999.00 1018.56 1019.84 1022.69 1024.70 1026.92 1028.53 1030.46 1032.88 6999.00
  12  1002.51 1009.13 1013.43 1017.84 1021.38 1024.78 1027.29 1030.33 1033.90 6999.00
  13   995.54 1000.47 1007.19 1013.24 1018.72 1024.19 1029.01 1034.08 1036.57 6999.00
  14  6999.00 1005.98 1009.16 1013.94 1018.97 1023.99 1029.35 1034.97 1039.32 6999.00
  15  6999.00 6999.00 1012.68 1015.55 1019.30 1022.74 6999.00 6999.00 6999.00 6999.00

 HEAD WILL BE SAVED ON UNIT   58 AT END OF TIME STEP    1, STRESS PERIOD    1
1
  VOLUMETRIC BUDGET FOR ENTIRE MODEL AT END OF TIME STEP    1, STRESS PERIOD   1
  ------------------------------------------------------------------------------

     CUMULATIVE VOLUMES      L**3       RATES FOR THIS TIME STEP      L**3/T
     ------------------                 ------------------------

           IN:                                      IN:
           ---                                      ---
             STORAGE     =           0.0000               STORAGE     =           0.0000
       CONSTANT HEAD     =           0.0000         CONSTANT HEAD     =           0.0000
               WELLS     =           0.0000                 WELLS     =           0.0000
     HEAD DEP BOUNDS     =      567638.0625       HEAD DEP BOUNDS     =           0.2160
      STREAM LEAKAGE     =   133575952.0000        STREAM LEAKAGE     =          50.8280
       LAKE  SEEPAGE     =           0.0000         LAKE  SEEPAGE     =           0.0000
        UZF RECHARGE     =     2220658.7500          UZF RECHARGE     =           0.8450
               GW ET     =           0.0000                 GW ET     =           0.0000
     SURFACE LEAKAGE     =           0.0000       SURFACE LEAKAGE     =           0.0000

                TOTAL IN =   136364256.0000                  TOTAL IN =          51.8890

          OUT:                                     OUT:
          ----                                     ----
             STORAGE     =           0.0000               STORAGE     =           0.0000
       CONSTANT HEAD     =           0.0000         CONSTANT HEAD     =           0.0000
               WELLS     =    52560000.0000                 WELLS     =          20.0000
     HEAD DEP BOUNDS     =      753140.6875       HEAD DEP BOUNDS     =           0.2866
      STREAM LEAKAGE     =    45359796.0000        STREAM LEAKAGE     =          17.2602
       LAKE  SEEPAGE     =           0.0000         LAKE  SEEPAGE     =           0.0000
        UZF RECHARGE     =           0.0000          UZF RECHARGE     =           0.0000
               GW ET     =    37692156.0000                 GW ET     =          14.3425
     SURFACE LEAKAGE     =           0.0000       SURFACE LEAKAGE     =           0.0000

               TOTAL OUT =   136365088.0000                 TOTAL OUT =          51.8893

                IN - OUT =        -832.0000                  IN - OUT =      -3.2043E-04

     PERCENT DISCREPANCY =          -0.00         PERCENT DISCREPANCY =          -0.00






         TIME SUMMARY AT END OF TIME STEP    1 IN STRESS PERIOD    1
                    SECONDS     MINUTES      HOURS       DAYS        YEARS
                    -----------------------------------------------------------
   TIME STEP LENGTH 2.62800E+06  43800.      730.00      30.417     8.32763E-02
 STRESS PERIOD TIME 2.62800E+06  43800.      730.00      30.417     8.32763E-02
         TOTAL TIME 2.62800E+06  43800.      730.00      30.417     8.32763E-02
1
1
                            STRESS PERIOD NO.    2, LENGTH =   2628000.    
                            -----------------------------------------------

                              NUMBER OF TIME STEPS =    15

                               MULTIPLIER FOR DELT =     1.000

                            INITIAL TIME STEP SIZE =   175200.0    

 WELL NO.  LAYER   ROW   COL   STRESS RATE         
 --------------------------------------------------
      1      2      6      4      -2.000    
      2      2      6      5      -2.000    
      3      2      7      4      -2.000    
      4      2      7      5      -2.000    
      5      2      8      4      -2.000    
      6      2      8      5      -2.000    
      7      2      9      4      -2.000    
      8      2      9      5      -2.000    
      9      2     10      4      -2.000    
     10      2     10      5      -2.000    

     10 WELLS

 REUSING NON-PARAMETER GHB CELLS FROM LAST STRESS PERIOD

      2 GHB CELLS

 REUSING STREAM SEGMENT DATA FROM LAST STRESS PERIOD



            AREAL INFILTRATION RATE
 READING ON UNIT   19 WITH FORMAT: (10F4.0)            

            1           2           3           4           5           6           7           8           9          10
 ........................................................................................................................
   1   8.0000E-09  1.6000E-08   0.000       0.000       0.000       0.000       0.000       0.000       0.000       0.000    
   2   1.6000E-08  8.0000E-09  1.6000E-08   0.000       0.000      6.4000E-08  6.4000E-08  4.0000E-08   0.000       0.000    
   3    0.000      4.0000E-08  8.0000E-09  8.0000E-09  6.4000E-08  6.4000E-08  4.0000E-08  4.0000E-08   0.000       0.000    
   4   6.4000E-08  4.0000E-08  8.0000E-09  8.0000E-09  8.0000E-09  8.0000E-09  8.0000E-09  8.0000E-09  1.6000E-08   0.000    
   5   6.4000E-08  4.0000E-08  8.0000E-09  8.0000E-09  8.0000E-09  8.0000E-09  8.0000E-09  8.0000E-09  8.0000E-09  8.0000E-09
   6   6.4000E-08  4.0000E-08  4.0000E-08  1.6000E-08  1.6000E-08  8.0000E-09  8.0000E-09  8.0000E-09  8.0000E-09  4.0000E-08
   7   6.4000E-08  4.0000E-08  4.0000E-08  1.6000E-08  1.6000E-08  8.0000E-09  8.0000E-09  1.6000E-08  1.6000E-08   0.000    
   8    0.000      4.0000E-08  4.0000E-08  1.6000E-08  1.6000E-08  8.0000E-09  8.0000E-09  1.6000E-08  4.0000E-08   0.000    
   9    0.000      4.0000E-08  4.0000E-08  1.6000E-08  1.6000E-08  8.0000E-09  8.0000E-09  1.6000E-08  4.0000E-08   0.000    
  10    0.000      4.0000E-08  4.0000E-08  1.6000E-08  1.6000E-08  8.0000E-09  8.0000E-09  1.6000E-08  4.0000E-08  6.4000E-08
  11    0.000      8.0000E-09  8.0000E-09  8.0000E-09  8.0000E-09  8.0000E-09  8.0000E-09  1.6000E-08  4.0000E-08   0.000    
  12   8.0000E-09  8.0000E-09  8.0000E-09  8.0000E-09  8.0000E-09  8.0000E-09  8.0000E-09  8.0000E-09  1.6000E-08   0.000    
  13   8.0000E-09  8.0000E-09  1.6000E-08  1.6000E-08  1.6000E-08  1.6000E-08  1.6000E-08  8.0000E-09  8.0000E-09   0.000    
  14    0.000      1.6000E-08  4.0000E-08  4.0000E-08  4.0000E-08  4.0000E-08  4.0000E-08  1.6000E-08  8.0000E-09   0.000    
  15    0.000       0.000      6.4000E-08  6.4000E-08  6.4000E-08  6.4000E-08   0.000       0.000       0.000       0.000    

                  ET RATE =  5.000000E-08

 USING ET EXTINCTION DEPTH FROM PREVIOUS STRESS PERIOD. CURRENT PERIOD IS:       2

 USING EXTINCTION WATER CONTENT FROM PREVIOUS STRESS PERIOD. CURRENT PERIOD IS:       2




 If any subsequent steady-state stress periods, min. and max. stages for each lake will be read in Record 9a.




 REUSING LAKE CONFIGURATION DATA FROM LAST STRESS PERIOD


 LAKE       PRECIP     EVAP     RUNOFF   WITHDRAW   BOTTOM     AREA
----------------------------------------------------------------------
   1     0.000E+00 4.000E-08 0.000E+00  0.000E+00 1.074E+03 2.500E+07




         C               INTERFACE CONDUCTANCES BETWEEN LAKE AND AQUIFER CELLS
   L     O          (IF TYPE = 6, CONDUCTANCE (L^2/T) IS BETWEEN AQUIFER CELL AND OVERLYING LAKE CELL.)
   A     L  L  T    (IF TYPE = 1 TO 4, CONDUCTANCES ARE PER UNIT SATURATED THICKNESS (L/T).)
   Y  R  U  A  Y
   E  O  M  K  P                        LAKEBED      C O N D U C T A N C E S
   R  W  N  E  E     DELTA Y   DELTA X  LEAKANCE   LAKEBED   AQUIFER  COMBINED
 _______________________________________________________________________________
   1  4  4  1  2    5.00E+03  5.00E+03  5.00E-02  2.50E+02  6.00E-03  6.00E-03
   1  3  5  1  3    5.00E+03  5.00E+03  5.00E-02  2.50E+02  1.20E-03  1.20E-03
   2  4  5  1  6    5.00E+03  5.00E+03  5.00E-02  1.25E+06  9.42E+00  9.42E+00
   1  5  5  1  4    5.00E+03  5.00E+03  5.00E-02  2.50E+02  6.00E-03  6.00E-03
   1  4  6  1  1    5.00E+03  5.00E+03  5.00E-02  2.50E+02  6.00E-03  6.00E-03
 
      DEAD POOL STORAGE FOR LAKE    1 BELOW SEGMENT   10 IS EQUAL TO     0.1200000000E+09
 
      LAKE     INFLOWING STREAM SEGMENT
         1                  9

 MAXIMUM NUMBER OF STREAMS INFLOWING TO A LAKE IS    1

      LAKE     OUTFLOWING STREAM SEGMENT
         1                 10

 MAXIMUM NUMBER OF STREAMS OUTFLOWING FROM A LAKE IS    1

 
 SOLVING FOR HEAD 
                                                   Max.-Head-Change                         Max.-Flux-Residual
  Residual-Control   Outer-Iter.   Inner-Iter.     Column Row Layer    Maximum-Head-Change  Column Row Layer    Maximum-Flux-Residual          L2-NORM 
          0                 1           2             8   12     2       0.6663137224E-01       6    5    2        -0.1952241470E+01      0.5743128764E+01
          0                 2           2             6    5     2       0.4497891780E-02       6    5    2         0.1372818721E+00      0.2033200482E+00
          0                 3           1             6    5     2      -0.2599361131E-03       6    5    2        -0.8238240719E-02      0.1139928930E-01

    ------------------------------------------------
       NWT REQUIRED            3 OUTER ITERATIONS 
       AND A TOTAL OF          5 INNER ITERATIONS.
    ------------------------------------------------

 OUTPUT CONTROL FOR STRESS PERIOD    2   TIME STEP    1
    PRINT BUDGET
    SAVE BUDGET

            WELLS   PERIOD    2   STEP   1
 WELL      1   LAYER   2   ROW     6   COL     4   RATE    -2.00000    
 WELL      2   LAYER   2   ROW     6   COL     5   RATE    -2.00000    
 WELL      3   LAYER   2   ROW     7   COL     4   RATE    -2.00000    
 WELL      4   LAYER   2   ROW     7   COL     5   RATE    -2.00000    
 WELL      5   LAYER   2   ROW     8   COL     4   RATE    -2.00000    
 WELL      6   LAYER   2   ROW     8   COL     5   RATE    -2.00000    
 WELL      7   LAYER   2   ROW     9   COL     4   RATE    -2.00000    
 WELL      8   LAYER   2   ROW     9   COL     5   RATE    -2.00000    
 WELL      9   LAYER   2   ROW    10   COL     4   RATE    -2.00000    
 WELL     10   LAYER   2   ROW    10   COL     5   RATE    -2.00000    

  HEAD DEP BOUNDS   PERIOD    2   STEP     1
 BOUNDARY      1   LAYER   2   ROW    13   COL     1   RATE   -0.286756    
 BOUNDARY      2   LAYER   2   ROW    14   COL     9   RATE    0.215638    



 STREAM LISTING     PERIOD      2   STEP        1

 LAYER ROW COL. STREAM  RCH.  FLOW INTO     FLOW TO   FLOW OUT OF   OVRLND.     DIRECT     STREAM       STREAM     STREAM     STREAM   STREAMBED  STREAMBED
                SEG.NO.  NO.  STRM. RCH.    AQUIFER    STRM. RCH.    RUNOFF     PRECIP       ET          HEAD       DEPTH      WIDTH   CONDCTNC.   GRADIENT

   2    1    1     1     1    2.2000E+01  1.8299E+00   2.0170E+01  0.000E+00  0.000E+00  0.000E+00  1.09417E+03  1.118E+00  1.224E+01  5.510E-01  1.107E+00
   2    2    2     1     2    2.0170E+01  3.2954E+00   1.6875E+01  0.000E+00  0.000E+00  0.000E+00  1.08913E+03  1.076E+00  1.155E+01  8.085E-01  1.359E+00
   2    3    3     1     3    1.6875E+01  2.5597E+00   1.4315E+01  0.000E+00  0.000E+00  0.000E+00  1.08344E+03  1.024E+00  1.060E+01  6.362E-01  1.341E+00
   2    3    4     1     4    1.4315E+01  2.1565E+00   1.2158E+01  0.000E+00  0.000E+00  0.000E+00  1.07838E+03  9.761E-01  9.772E+00  5.424E-01  1.325E+00
   2    4    5     2     1    2.1585E+00  2.1585E+00   0.0000E+00  0.000E+00  0.000E+00  0.000E+00  1.07200E+03  6.249E-02  1.200E+01  7.800E-01  1.021E+00
   2    5    6     2     2    0.0000E+00  0.0000E+00   0.0000E+00  0.000E+00  0.000E+00  0.000E+00  1.06651E+03  0.000E+00  1.200E+01  6.000E-01  1.000E+00
   2    6    6     2     3    0.0000E+00  0.0000E+00   0.0000E+00  0.000E+00  0.000E+00  0.000E+00  1.06179E+03  0.000E+00  1.200E+01  6.000E-01  1.000E+00
   2    7    6     2     4    0.0000E+00  0.0000E+00   0.0000E+00  0.000E+00  0.000E+00  0.000E+00  1.05708E+03  0.000E+00  1.200E+01  6.000E-01  1.000E+00
   2    8    6     2     5    0.0000E+00  0.0000E+00   0.0000E+00  0.000E+00  0.000E+00  0.000E+00  1.05236E+03  0.000E+00  1.200E+01  6.000E-01  1.000E+00
   2    3    5     3     1    1.0000E+01  2.8252E+00   7.1748E+00  0.000E+00  0.000E+00  0.000E+00  1.07555E+03  1.909E+00  9.636E+00  7.227E-01  1.955E+00
   2    3    6     3     2    7.1748E+00  2.4905E+00   4.6843E+00  0.000E+00  0.000E+00  0.000E+00  1.07264E+03  1.727E+00  8.909E+00  6.682E-01  1.864E+00
   2    3    7     3     3    4.6843E+00  1.9718E+00   2.7125E+00  0.000E+00  0.000E+00  0.000E+00  1.06987E+03  1.555E+00  8.218E+00  5.547E-01  1.777E+00
   2    4    8     3     4    2.7125E+00  2.2567E+00   4.5579E-01  0.000E+00  0.000E+00  0.000E+00  1.06682E+03  1.364E+00  7.455E+00  6.709E-01  1.682E+00
   2    5    8     3     5    4.5579E-01  4.5579E-01   0.0000E+00  0.000E+00  0.000E+00  0.000E+00  1.06362E+03  0.000E+00  6.655E+00  4.991E-01  1.582E+00
   2    6    8     3     6    0.0000E+00  0.0000E+00   0.0000E+00  0.000E+00  0.000E+00  0.000E+00  1.06055E+03  0.000E+00  6.145E+00  1.844E-01  1.000E+00
   2    5   10     4     1    1.0000E+01  9.0525E-01   9.0947E+00  0.000E+00  0.000E+00  0.000E+00  1.07835E+03  6.210E-01  1.000E+01  2.500E-01  1.207E+00
   2    5    9     4     2    9.0947E+00  1.7835E+00   7.3113E+00  0.000E+00  0.000E+00  0.000E+00  1.07148E+03  5.670E-01  1.000E+01  5.000E-01  1.189E+00
   2    6    8     4     3    7.3113E+00  1.2257E+00   6.0855E+00  0.000E+00  0.000E+00  0.000E+00  1.06368E+03  5.021E-01  1.000E+01  3.500E-01  1.167E+00
   2    6    8     5     1    6.0855E+00  1.4716E+00   4.6139E+00  0.000E+00  0.000E+00  0.000E+00  1.05854E+03  5.396E-01  1.039E+01  4.158E-01  1.180E+00
   2    7    7     5     2    4.6139E+00  1.4897E+00   3.1242E+00  0.000E+00  0.000E+00  0.000E+00  1.05398E+03  4.817E-01  8.557E+00  4.279E-01  1.161E+00
   2    8    7     5     3    3.1242E+00  8.2855E-01   2.2957E+00  0.000E+00  0.000E+00  0.000E+00  1.04968E+03  4.253E-01  6.911E+00  2.419E-01  1.142E+00
   2    8    6     5     4    2.2957E+00  4.9455E-01   1.8011E+00  0.000E+00  0.000E+00  0.000E+00  1.04664E+03  3.856E-01  5.843E+00  1.461E-01  1.129E+00
   2    9    6     6     1    1.8011E+00  1.8011E+00   0.0000E+00  0.000E+00  0.000E+00  0.000E+00  1.04278E+03  5.669E-02  1.200E+01  6.000E-01  1.019E+00
   2   10    7     6     2    0.0000E+00  0.0000E+00   0.0000E+00  0.000E+00  0.000E+00  0.000E+00  1.03818E+03  0.000E+00  1.200E+01  6.000E-01  1.000E+00
   2   11    7     6     3    0.0000E+00  0.0000E+00   0.0000E+00  0.000E+00  0.000E+00  0.000E+00  1.03364E+03  0.000E+00  1.200E+01  6.000E-01  1.000E+00
   2   12    7     6     4    0.0000E+00  0.0000E+00   0.0000E+00  0.000E+00  0.000E+00  0.000E+00  1.02909E+03  0.000E+00  1.200E+01  6.000E-01  5.960E-01
   2   13    7     6     5    0.0000E+00 -7.2331E-01   7.2331E-01  0.000E+00  0.000E+00  0.000E+00  1.02601E+03  9.615E-02  1.200E+01  2.400E-01 -1.005E+00
   2   14    9     7     1    1.5000E+02  3.0115E+00   1.4699E+02  0.000E+00  0.000E+00  0.000E+00  1.03986E+03  2.283E+00  5.527E+01  5.591E+00  1.795E-01
   2   13    8     7     2    1.4699E+02  4.1590E+00   1.4283E+02  0.000E+00  0.000E+00  0.000E+00  1.03476E+03  2.264E+00  5.519E+01  6.140E+00  2.258E-01
   2   13    7     7     3    1.4283E+02  3.5851E+00   1.3924E+02  0.000E+00  0.000E+00  0.000E+00  1.02966E+03  2.243E+00  5.509E+01  5.571E+00  2.145E-01
   2   13    6     8     1    1.3997E+02  1.6993E+00   1.3827E+02  0.000E+00  0.000E+00  0.000E+00  1.02461E+03  2.738E+00  3.971E+01  4.046E+00  1.400E-01
   2   13    5     8     2    1.3827E+02 -1.4786E+00   1.3975E+02  0.000E+00  0.000E+00  0.000E+00  1.01836E+03  2.738E+00  3.969E+01  4.045E+00 -1.218E-01
   2   13    4     8     3    1.3975E+02 -4.5152E+00   1.4426E+02  0.000E+00  0.000E+00  0.000E+00  1.01213E+03  2.760E+00  4.001E+01  4.078E+00 -3.691E-01
   2   13    3     8     4    1.4426E+02 -5.2724E+00   1.4953E+02  0.000E+00  0.000E+00  0.000E+00  1.00592E+03  2.795E+00  4.053E+01  4.130E+00 -4.256E-01
   2   13    2     8     5    1.4953E+02 -3.2611E+00   1.5280E+02  0.000E+00  0.000E+00  0.000E+00  9.99700E+02  2.825E+00  4.096E+01  4.174E+00 -2.604E-01
   2   13    1     8     6    1.5280E+02 -2.0863E+00   1.5488E+02  0.000E+00  0.000E+00  0.000E+00  9.94719E+02  2.844E+00  4.123E+01  2.521E+00 -2.758E-01
   2    4    5     9     1    0.0000E+00  0.0000E+00   0.0000E+00  0.000E+00  0.000E+00  0.000E+00  1.06000E+03  0.000E+00  2.000E+01  2.000E-03  1.000E+00
   2    4    5    10     1    0.0000E+00  0.0000E+00   0.0000E+00  0.000E+00  0.000E+00  0.000E+00  1.08000E+03  0.000E+00  2.000E+01  2.000E-03  1.000E+00



 ..........LAKE  1 IS DRY..........

     SECTIONS OF THE LAKE BOTTOM HAVE BECOME DRY.  THE DRYSECTIONS
     LIE ABOVE THE FOLLOWING  1 AQUIFER CELLS (LAYER,ROW,COLUMN):
     (  2,  4,  5)  (

 PERIOD     2     TIME STEP     1     TIME STEP LENGTH  1.7520E+05
 PERIOD TIME  1.7520E+05     TOTAL SIMULATION TIME  2.8032E+06


                 HYDROLOGIC BUDGET SUMMARIES FOR SIMULATED LAKES
     (ALL FLUID FLUXES ARE VOLUMES ADDED TO THE LAKE DURING PRESENT TIME STEP)
     ----------------------------------------------------------------------------------------
 LAKE    STAGE         VOLUME     VOL. CHANGE      PRECIP     EVAPORATION    SPECIFIED RUNOFF     COMPUTED RUNOFF    TOTAL RUNOFF
   1  1.074500E+03  0.000000E+00  0.000000E+00  0.000000E+00  0.000000E+00   0.000000E+00          0.000000E+00      0.000000E+00

            GROUND WATER            SURFACE WATER        WATER          UZF INFIL.
 LAKE    INFLOW     OUTFLOW      INFLOW     OUTFLOW       USE        FROM LAKE
   1  0.0000E+00  0.0000E+00  0.0000E+00  0.0000E+00  0.0000E+00       0.0000E+00

      CONNECTED LAKE   TIME-STEP         STAGE-CHANGE          PERCENT
 LAKE    INFLUX      SURFACE AREA   TIME STEP  CUMULATIVE    DISCREPANCY
   1   0.0000E+00     0.0000E+00   0.0000E+00  0.0000E+00       0.000
 --------------------------------------------------------------------------------



            CUMULATIVE HYDROLOGIC BUDGET SUMMARIES FOR SIMULATED LAKES
     (ALL FLUID FLUXES ARE SUMS OF VOLUMES ADDED TO THE LAKE SINCE INITIAL TIME)
     ---------------------------------------------------------------------------
 LAKE       PRECIP       EVAP     SPECIFIED RUNOFF   COMPUTED RUNOFF   TOTAL RUNOFF
   1     0.0000E+00  0.0000E+00       0.0000E+00       0.0000E+00       0.0000E+00

            GROUND WATER            SURFACE WATER       UZF INFIL.
 LAKE    INFLOW     OUTFLOW      INFLOW     OUTFLOW     FROM LAKE
   1  0.0000E+00  0.0000E+00  0.0000E+00  0.0000E+00    0.0000E+00

         WATER    CONNECTED LAKE   CHANGE       PERCENT
 LAKE     USE         INFLUX       IN VOL.    DISCREPANCY
   1   0.0000E+00   0.0000E+00   0.0000E+00      0.000
 --------------------------------------------------------------------------------

 UBDSV3 SAVING "           GW ET" ON UNIT  61 AT TIME STEP 1, STRESS PERIOD 2
 UBDSV3 SAVING "    UZF RECHARGE" ON UNIT  61 AT TIME STEP 1, STRESS PERIOD 2
 UBDSV3 SAVING " SURFACE LEAKAGE" ON UNIT  61 AT TIME STEP 1, STRESS PERIOD 2
 UBDSV3 SAVING "       HORT+DUNN" ON UNIT  61 AT TIME STEP 1, STRESS PERIOD 2
 UBDSV3 SAVING "  STORAGE CHANGE" ON UNIT  61 AT TIME STEP 1, STRESS PERIOD 2


UNSATURATED ZONE PACKAGE VOLUMETRIC BUDGET FOR  TIME STEP     1 STRESS PERIOD    2
  ------------------------------------------------------------------------------



     CUMULATIVE VOLUMES      L**3       RATES FOR THIS TIME STEP      L**3/T
     ------------------                 ------------------------

           IN:                                      IN:
           ---                                      ---
        INFILTRATION =    14064180.0000          INFILTRATION =          67.6000

          OUT:                                     OUT:
          ----                                     ----
              UZF ET =    22891432.3652                UZF ET =         130.6589
        UZF RECHARGE =    10019249.8306          UZF RECHARGE =          44.5125

            IN - OUT =   -18846502.1958              IN - OUT =        -107.5714

          STORAGE:                                 STORAGE:
          --------                                 --------
      STORAGE CHANGE =   -18841782.2561        STORAGE CHANGE =        -107.5444

 PERCENT DISCREPANCY IS DIFFERENCE BETWEEN IN-OUT MINUS CHANGE IN STORAGE
 DIVIDED BY THE AVERAGE OF IN AND OUT TIMES 100

 PERCENT DISCREPANCY =          -0.00     PERCENT DISCREPANCY =          -0.02






1
  VOLUMETRIC BUDGET FOR ENTIRE MODEL AT END OF TIME STEP    1, STRESS PERIOD   2
  ------------------------------------------------------------------------------

     CUMULATIVE VOLUMES      L**3       RATES FOR THIS TIME STEP      L**3/T
     ------------------                 ------------------------

           IN:                                      IN:
           ---                                      ---
             STORAGE     =      937146.1250               STORAGE     =           5.3490
       CONSTANT HEAD     =           0.0000         CONSTANT HEAD     =           0.0000
               WELLS     =           0.0000                 WELLS     =           0.0000
     HEAD DEP BOUNDS     =      605417.9375       HEAD DEP BOUNDS     =           0.2156
      STREAM LEAKAGE     =   141364432.0000        STREAM LEAKAGE     =          44.4548
       LAKE  SEEPAGE     =           0.0000         LAKE  SEEPAGE     =           0.0000
        UZF RECHARGE     =    10019248.0000          UZF RECHARGE     =          44.5125
               GW ET     =           0.0000                 GW ET     =           0.0000
     SURFACE LEAKAGE     =           0.0000       SURFACE LEAKAGE     =           0.0000

                TOTAL IN =   152926240.0000                  TOTAL IN =          94.5320

          OUT:                                     OUT:
          ----                                     ----
             STORAGE     =     8170424.5000               STORAGE     =          46.6348
       CONSTANT HEAD     =           0.0000         CONSTANT HEAD     =           0.0000
               WELLS     =    56064000.0000                 WELLS     =          20.0000
     HEAD DEP BOUNDS     =      803380.3125       HEAD DEP BOUNDS     =           0.2868
      STREAM LEAKAGE     =    48397216.0000        STREAM LEAKAGE     =          17.3369
       LAKE  SEEPAGE     =           0.0000         LAKE  SEEPAGE     =           0.0000
        UZF RECHARGE     =           0.0000          UZF RECHARGE     =           0.0000
               GW ET     =    39492012.0000                 GW ET     =          10.2731
     SURFACE LEAKAGE     =           0.0000       SURFACE LEAKAGE     =           0.0000

               TOTAL OUT =   152927040.0000                 TOTAL OUT =          94.5316

                IN - OUT =        -800.0000                  IN - OUT =       3.6621E-04

     PERCENT DISCREPANCY =          -0.00         PERCENT DISCREPANCY =           0.00






         TIME SUMMARY AT END OF TIME STEP    1 IN STRESS PERIOD    2
                    SECONDS     MINUTES      HOURS       DAYS        YEARS
                    -----------------------------------------------------------
   TIME STEP LENGTH 1.75200E+05  2920.0      48.667      2.0278     5.55175E-03
 STRESS PERIOD TIME 1.75200E+05  2920.0      48.667      2.0278     5.55175E-03
         TOTAL TIME 2.80320E+06  46720.      778.67      32.444     8.88281E-02
1
 
 SOLVING FOR HEAD 
                                                   Max.-Head-Change                         Max.-Flux-Residual
  Residual-Control   Outer-Iter.   Inner-Iter.     Column Row Layer    Maximum-Head-Change  Column Row Layer    Maximum-Flux-Residual          L2-NORM 
          0                 1           2             6    5     2      -0.5975385420E-01       6    5    2        -0.1747742916E+01      0.5475385355E+01
          0                 2           2             6    5     2       0.4968435507E-02       6    5    2         0.1513274528E+00      0.2174617566E+00
          0                 3           1             6    5     2      -0.2864983020E-03       6    5    2        -0.9079728376E-02      0.1240473226E-01

    ------------------------------------------------
       NWT REQUIRED            3 OUTER ITERATIONS 
       AND A TOTAL OF          5 INNER ITERATIONS.
    ------------------------------------------------

 NO OUTPUT CONTROL FOR STRESS PERIOD    2   TIME STEP    2
 ..........LAKE  1 IS DRY..........
 
 SOLVING FOR HEAD 
                                                   Max.-Head-Change                         Max.-Flux-Residual
  Residual-Control   Outer-Iter.   Inner-Iter.     Column Row Layer    Maximum-Head-Change  Column Row Layer    Maximum-Flux-Residual          L2-NORM 
          0                 1           2             6    5     2      -0.5403722138E-01       6    5    2        -0.1574288074E+01      0.5236026093E+01
          0                 2           2             6    5     2       0.5152274786E-02       6    5    2         0.1566667885E+00      0.2225495694E+00
          0                 3           1             6    5     2      -0.2966080377E-03       6    5    2        -0.9400096192E-02      0.1274911908E-01

    ------------------------------------------------
       NWT REQUIRED            3 OUTER ITERATIONS 
       AND A TOTAL OF          5 INNER ITERATIONS.
    ------------------------------------------------

 NO OUTPUT CONTROL FOR STRESS PERIOD    2   TIME STEP    3
 ..........LAKE  1 IS DRY..........
 
 SOLVING FOR HEAD 
                                                   Max.-Head-Change                         Max.-Flux-Residual
  Residual-Control   Outer-Iter.   Inner-Iter.     Column Row Layer    Maximum-Head-Change  Column Row Layer    Maximum-Flux-Residual          L2-NORM 
          0                 1           2             6    5     2      -0.4852175249E-01       6    5    2        -0.1406551525E+01      0.5082295647E+01
          0                 2           2             6    5     2       0.4643790622E-02       6    5    2         0.1406474310E+00      0.2098430840E+00
          0                 3           1             6    5     2      -0.2668215583E-03       6    5    2        -0.8438915002E-02      0.1175854251E-01

    ------------------------------------------------
       NWT REQUIRED            3 OUTER ITERATIONS 
       AND A TOTAL OF          5 INNER ITERATIONS.
    ------------------------------------------------

 NO OUTPUT CONTROL FOR STRESS PERIOD    2   TIME STEP    4
 ..........LAKE  1 IS DRY..........
 
 SOLVING FOR HEAD 
                                                   Max.-Head-Change                         Max.-Flux-Residual
  Residual-Control   Outer-Iter.   Inner-Iter.     Column Row Layer    Maximum-Head-Change  Column Row Layer    Maximum-Flux-Residual          L2-NORM 
          0                 1           2             8    2     2       0.4773254801E-01       6    5    2        -0.1262498047E+01      0.4929906125E+01
          0                 2           2             6    5     2       0.4178287162E-02       6    5    2         0.1262435098E+00      0.1941962750E+00
          0                 3           1             6    5     2      -0.2395666123E-03       6    5    2        -0.7574666492E-02      0.1058139415E-01

    ------------------------------------------------
       NWT REQUIRED            3 OUTER ITERATIONS 
       AND A TOTAL OF          5 INNER ITERATIONS.
    ------------------------------------------------

 OUTPUT CONTROL FOR STRESS PERIOD    2   TIME STEP    5
    PRINT BUDGET
    SAVE BUDGET

            WELLS   PERIOD    2   STEP   5
 WELL      1   LAYER   2   ROW     6   COL     4   RATE    -2.00000    
 WELL      2   LAYER   2   ROW     6   COL     5   RATE    -2.00000    
 WELL      3   LAYER   2   ROW     7   COL     4   RATE    -2.00000    
 WELL      4   LAYER   2   ROW     7   COL     5   RATE    -2.00000    
 WELL      5   LAYER   2   ROW     8   COL     4   RATE    -2.00000    
 WELL      6   LAYER   2   ROW     8   COL     5   RATE    -2.00000    
 WELL      7   LAYER   2   ROW     9   COL     4   RATE    -2.00000    
 WELL      8   LAYER   2   ROW     9   COL     5   RATE    -2.00000    
 WELL      9   LAYER   2   ROW    10   COL     4   RATE    -2.00000    
 WELL     10   LAYER   2   ROW    10   COL     5   RATE    -2.00000    

  HEAD DEP BOUNDS   PERIOD    2   STEP     5
 BOUNDARY      1   LAYER   2   ROW    13   COL     1   RATE   -0.287312    
 BOUNDARY      2   LAYER   2   ROW    14   COL     9   RATE    0.214769    



 STREAM LISTING     PERIOD      2   STEP        5

 LAYER ROW COL. STREAM  RCH.  FLOW INTO     FLOW TO   FLOW OUT OF   OVRLND.     DIRECT     STREAM       STREAM     STREAM     STREAM   STREAMBED  STREAMBED
                SEG.NO.  NO.  STRM. RCH.    AQUIFER    STRM. RCH.    RUNOFF     PRECIP       ET          HEAD       DEPTH      WIDTH   CONDCTNC.   GRADIENT

   2    1    1     1     1    2.1000E+01  1.7959E+00   1.9204E+01  0.000E+00  0.000E+00  0.000E+00  1.09415E+03  1.102E+00  1.202E+01  5.410E-01  1.106E+00
   2    2    2     1     2    1.9204E+01  3.2007E+00   1.6003E+01  0.000E+00  0.000E+00  0.000E+00  1.08912E+03  1.060E+00  1.126E+01  7.883E-01  1.353E+00
   2    3    3     1     3    1.6003E+01  2.4809E+00   1.3523E+01  0.000E+00  0.000E+00  0.000E+00  1.08343E+03  1.007E+00  1.032E+01  6.191E-01  1.336E+00
   2    3    4     1     4    1.3523E+01  2.0856E+00   1.1437E+01  0.000E+00  0.000E+00  0.000E+00  1.07837E+03  9.596E-01  9.490E+00  5.267E-01  1.320E+00
   2    4    5     2     1    1.4370E+00  1.4370E+00   0.0000E+00  0.000E+00  0.000E+00  0.000E+00  1.07198E+03  4.895E-02  1.200E+01  7.800E-01  1.016E+00
   2    5    6     2     2    0.0000E+00  0.0000E+00   0.0000E+00  0.000E+00  0.000E+00  0.000E+00  1.06651E+03  0.000E+00  1.200E+01  6.000E-01  1.000E+00
   2    6    6     2     3    0.0000E+00  0.0000E+00   0.0000E+00  0.000E+00  0.000E+00  0.000E+00  1.06179E+03  0.000E+00  1.200E+01  6.000E-01  1.000E+00
   2    7    6     2     4    0.0000E+00  0.0000E+00   0.0000E+00  0.000E+00  0.000E+00  0.000E+00  1.05708E+03  0.000E+00  1.200E+01  6.000E-01  1.000E+00
   2    8    6     2     5    0.0000E+00  0.0000E+00   0.0000E+00  0.000E+00  0.000E+00  0.000E+00  1.05236E+03  0.000E+00  1.200E+01  6.000E-01  1.000E+00
   2    3    5     3     1    1.0000E+01  2.8252E+00   7.1748E+00  0.000E+00  0.000E+00  0.000E+00  1.07555E+03  1.909E+00  9.636E+00  7.227E-01  1.955E+00
   2    3    6     3     2    7.1748E+00  2.4905E+00   4.6843E+00  0.000E+00  0.000E+00  0.000E+00  1.07264E+03  1.727E+00  8.909E+00  6.682E-01  1.864E+00
   2    3    7     3     3    4.6843E+00  1.9718E+00   2.7125E+00  0.000E+00  0.000E+00  0.000E+00  1.06987E+03  1.555E+00  8.218E+00  5.547E-01  1.777E+00
   2    4    8     3     4    2.7125E+00  2.2567E+00   4.5579E-01  0.000E+00  0.000E+00  0.000E+00  1.06682E+03  1.364E+00  7.455E+00  6.709E-01  1.682E+00
   2    5    8     3     5    4.5579E-01  4.5579E-01   0.0000E+00  0.000E+00  0.000E+00  0.000E+00  1.06362E+03  0.000E+00  6.655E+00  4.991E-01  1.582E+00
   2    6    8     3     6    0.0000E+00  0.0000E+00   0.0000E+00  0.000E+00  0.000E+00  0.000E+00  1.06055E+03  0.000E+00  6.145E+00  1.844E-01  1.000E+00
   2    5   10     4     1    1.0000E+01  9.0525E-01   9.0947E+00  0.000E+00  0.000E+00  0.000E+00  1.07835E+03  6.210E-01  1.000E+01  2.500E-01  1.207E+00
   2    5    9     4     2    9.0947E+00  1.7835E+00   7.3113E+00  0.000E+00  0.000E+00  0.000E+00  1.07148E+03  5.670E-01  1.000E+01  5.000E-01  1.189E+00
   2    6    8     4     3    7.3113E+00  1.2257E+00   6.0855E+00  0.000E+00  0.000E+00  0.000E+00  1.06368E+03  5.021E-01  1.000E+01  3.500E-01  1.167E+00
   2    6    8     5     1    6.0855E+00  1.4716E+00   4.6139E+00  0.000E+00  0.000E+00  0.000E+00  1.05854E+03  5.396E-01  1.039E+01  4.158E-01  1.180E+00
   2    7    7     5     2    4.6139E+00  1.4897E+00   3.1242E+00  0.000E+00  0.000E+00  0.000E+00  1.05398E+03  4.817E-01  8.557E+00  4.279E-01  1.161E+00
   2    8    7     5     3    3.1242E+00  8.2855E-01   2.2957E+00  0.000E+00  0.000E+00  0.000E+00  1.04968E+03  4.253E-01  6.911E+00  2.419E-01  1.142E+00
   2    8    6     5     4    2.2957E+00  4.9455E-01   1.8011E+00  0.000E+00  0.000E+00  0.000E+00  1.04664E+03  3.856E-01  5.843E+00  1.461E-01  1.129E+00
   2    9    6     6     1    1.8011E+00  1.8011E+00   0.0000E+00  0.000E+00  0.000E+00  0.000E+00  1.04278E+03  5.669E-02  1.200E+01  6.000E-01  1.019E+00
   2   10    7     6     2    0.0000E+00  0.0000E+00   0.0000E+00  0.000E+00  0.000E+00  0.000E+00  1.03818E+03  0.000E+00  1.200E+01  6.000E-01  1.000E+00
   2   11    7     6     3    0.0000E+00  0.0000E+00   0.0000E+00  0.000E+00  0.000E+00  0.000E+00  1.03364E+03  0.000E+00  1.200E+01  6.000E-01  1.000E+00
   2   12    7     6     4    0.0000E+00  0.0000E+00   0.0000E+00  0.000E+00  0.000E+00  0.000E+00  1.02909E+03  0.000E+00  1.200E+01  6.000E-01  5.817E-01
   2   13    7     6     5    0.0000E+00 -7.2795E-01   7.2795E-01  0.000E+00  0.000E+00  0.000E+00  1.02601E+03  9.652E-02  1.200E+01  2.400E-01 -1.011E+00
   2   14    9     7     1    1.5000E+02  2.8854E+00   1.4711E+02  0.000E+00  0.000E+00  0.000E+00  1.03986E+03  2.284E+00  5.528E+01  5.591E+00  1.720E-01
   2   13    8     7     2    1.4711E+02  4.0247E+00   1.4309E+02  0.000E+00  0.000E+00  0.000E+00  1.03477E+03  2.265E+00  5.519E+01  6.140E+00  2.185E-01
   2   13    7     7     3    1.4309E+02  3.4852E+00   1.3960E+02  0.000E+00  0.000E+00  0.000E+00  1.02966E+03  2.245E+00  5.510E+01  5.572E+00  2.085E-01
   2   13    6     8     1    1.4033E+02  1.6140E+00   1.3872E+02  0.000E+00  0.000E+00  0.000E+00  1.02462E+03  2.741E+00  3.975E+01  4.051E+00  1.328E-01
   2   13    5     8     2    1.3872E+02 -1.6090E+00   1.4033E+02  0.000E+00  0.000E+00  0.000E+00  1.01837E+03  2.741E+00  3.975E+01  4.051E+00 -1.324E-01
   2   13    4     8     3    1.4033E+02 -4.6733E+00   1.4500E+02  0.000E+00  0.000E+00  0.000E+00  1.01214E+03  2.764E+00  4.008E+01  4.085E+00 -3.814E-01
   2   13    3     8     4    1.4500E+02 -5.4369E+00   1.5044E+02  0.000E+00  0.000E+00  0.000E+00  1.00593E+03  2.801E+00  4.061E+01  4.138E+00 -4.379E-01
   2   13    2     8     5    1.5044E+02 -3.3467E+00   1.5378E+02  0.000E+00  0.000E+00  0.000E+00  9.99707E+02  2.832E+00  4.106E+01  4.184E+00 -2.666E-01
   2   13    1     8     6    1.5378E+02 -2.1109E+00   1.5590E+02  0.000E+00  0.000E+00  0.000E+00  9.94726E+02  2.851E+00  4.133E+01  2.527E+00 -2.784E-01
   2    4    5     9     1    0.0000E+00  0.0000E+00   0.0000E+00  0.000E+00  0.000E+00  0.000E+00  1.06000E+03  0.000E+00  2.000E+01  2.000E-03  1.000E+00
   2    4    5    10     1    0.0000E+00  0.0000E+00   0.0000E+00  0.000E+00  0.000E+00  0.000E+00  1.08000E+03  0.000E+00  2.000E+01  2.000E-03  1.000E+00



 ..........LAKE  1 IS DRY..........

     SECTIONS OF THE LAKE BOTTOM HAVE BECOME DRY.  THE DRYSECTIONS
     LIE ABOVE THE FOLLOWING  1 AQUIFER CELLS (LAYER,ROW,COLUMN):
     (  2,  4,  5)  (

 PERIOD     2     TIME STEP     5     TIME STEP LENGTH  1.7520E+05
 PERIOD TIME  8.7600E+05     TOTAL SIMULATION TIME  3.5040E+06


                 HYDROLOGIC BUDGET SUMMARIES FOR SIMULATED LAKES
     (ALL FLUID FLUXES ARE VOLUMES ADDED TO THE LAKE DURING PRESENT TIME STEP)
     ----------------------------------------------------------------------------------------
 LAKE    STAGE         VOLUME     VOL. CHANGE      PRECIP     EVAPORATION    SPECIFIED RUNOFF     COMPUTED RUNOFF    TOTAL RUNOFF
   1  1.074500E+03  0.000000E+00  0.000000E+00  0.000000E+00  0.000000E+00   0.000000E+00          0.000000E+00      0.000000E+00

            GROUND WATER            SURFACE WATER        WATER          UZF INFIL.
 LAKE    INFLOW     OUTFLOW      INFLOW     OUTFLOW       USE        FROM LAKE
   1  0.0000E+00  0.0000E+00  0.0000E+00  0.0000E+00  0.0000E+00       0.0000E+00

      CONNECTED LAKE   TIME-STEP         STAGE-CHANGE          PERCENT
 LAKE    INFLUX      SURFACE AREA   TIME STEP  CUMULATIVE    DISCREPANCY
   1   0.0000E+00     0.0000E+00   0.0000E+00  0.0000E+00       0.000
 --------------------------------------------------------------------------------



            CUMULATIVE HYDROLOGIC BUDGET SUMMARIES FOR SIMULATED LAKES
     (ALL FLUID FLUXES ARE SUMS OF VOLUMES ADDED TO THE LAKE SINCE INITIAL TIME)
     ---------------------------------------------------------------------------
 LAKE       PRECIP       EVAP     SPECIFIED RUNOFF   COMPUTED RUNOFF   TOTAL RUNOFF
   1     0.0000E+00  0.0000E+00       0.0000E+00       0.0000E+00       0.0000E+00

            GROUND WATER            SURFACE WATER       UZF INFIL.
 LAKE    INFLOW     OUTFLOW      INFLOW     OUTFLOW     FROM LAKE
   1  0.0000E+00  0.0000E+00  0.0000E+00  0.0000E+00    0.0000E+00

         WATER    CONNECTED LAKE   CHANGE       PERCENT
 LAKE     USE         INFLUX       IN VOL.    DISCREPANCY
   1   0.0000E+00   0.0000E+00   0.0000E+00      0.000
 --------------------------------------------------------------------------------

 UBDSV3 SAVING "           GW ET" ON UNIT  61 AT TIME STEP 5, STRESS PERIOD 2
 UBDSV3 SAVING "    UZF RECHARGE" ON UNIT  61 AT TIME STEP 5, STRESS PERIOD 2
 UBDSV3 SAVING " SURFACE LEAKAGE" ON UNIT  61 AT TIME STEP 5, STRESS PERIOD 2
 UBDSV3 SAVING "       HORT+DUNN" ON UNIT  61 AT TIME STEP 5, STRESS PERIOD 2
 UBDSV3 SAVING "  STORAGE CHANGE" ON UNIT  61 AT TIME STEP 5, STRESS PERIOD 2


UNSATURATED ZONE PACKAGE VOLUMETRIC BUDGET FOR  TIME STEP     5 STRESS PERIOD    2
  ------------------------------------------------------------------------------



     CUMULATIVE VOLUMES      L**3       RATES FOR THIS TIME STEP      L**3/T
     ------------------                 ------------------------

           IN:                                      IN:
           ---                                      ---
        INFILTRATION =    61438260.0000          INFILTRATION =          67.6000

          OUT:                                     OUT:
          ----                                     ----
              UZF ET =   114401531.0466                UZF ET =         130.5394
        UZF RECHARGE =    40012359.5261          UZF RECHARGE =          41.3871

            IN - OUT =   -92975630.5727              IN - OUT =        -104.3265

          STORAGE:                                 STORAGE:
          --------                                 --------
      STORAGE CHANGE =   -92951615.1468        STORAGE CHANGE =        -104.3021

 PERCENT DISCREPANCY IS DIFFERENCE BETWEEN IN-OUT MINUS CHANGE IN STORAGE
 DIVIDED BY THE AVERAGE OF IN AND OUT TIMES 100

 PERCENT DISCREPANCY =          -0.00     PERCENT DISCREPANCY =          -0.01






1
  VOLUMETRIC BUDGET FOR ENTIRE MODEL AT END OF TIME STEP    5, STRESS PERIOD   2
  ------------------------------------------------------------------------------

     CUMULATIVE VOLUMES      L**3       RATES FOR THIS TIME STEP      L**3/T
     ------------------                 ------------------------

           IN:                                      IN:
           ---                                      ---
             STORAGE     =     4585531.5000               STORAGE     =           5.4982
       CONSTANT HEAD     =           0.0000         CONSTANT HEAD     =           0.0000
               WELLS     =           0.0000                 WELLS     =           0.0000
     HEAD DEP BOUNDS     =      756117.1250       HEAD DEP BOUNDS     =           0.2148
      STREAM LEAKAGE     =   172024672.0000        STREAM LEAKAGE     =          43.0093
       LAKE  SEEPAGE     =           0.0000         LAKE  SEEPAGE     =           0.0000
        UZF RECHARGE     =    40012356.0000          UZF RECHARGE     =          41.3871
               GW ET     =           0.0000                 GW ET     =           0.0000
     SURFACE LEAKAGE     =           0.0000       SURFACE LEAKAGE     =           0.0000

                TOTAL IN =   217378672.0000                  TOTAL IN =          90.1094

          OUT:                                     OUT:
          ----                                     ----
             STORAGE     =    38765152.0000               STORAGE     =          41.5577
       CONSTANT HEAD     =           0.0000         CONSTANT HEAD     =           0.0000
               WELLS     =    70080000.0000                 WELLS     =          20.0000
     HEAD DEP BOUNDS     =     1004592.1250       HEAD DEP BOUNDS     =           0.2873
      STREAM LEAKAGE     =    60798772.0000        STREAM LEAKAGE     =          17.9047
       LAKE  SEEPAGE     =           0.0000         LAKE  SEEPAGE     =           0.0000
        UZF RECHARGE     =           0.0000          UZF RECHARGE     =           0.0000
               GW ET     =    46730728.0000                 GW ET     =          10.3593
     SURFACE LEAKAGE     =           0.0000       SURFACE LEAKAGE     =           0.0000

               TOTAL OUT =   217379232.0000                 TOTAL OUT =          90.1091

                IN - OUT =        -560.0000                  IN - OUT =       2.9755E-04

     PERCENT DISCREPANCY =          -0.00         PERCENT DISCREPANCY =           0.00






         TIME SUMMARY AT END OF TIME STEP    5 IN STRESS PERIOD    2
                    SECONDS     MINUTES      HOURS       DAYS        YEARS
                    -----------------------------------------------------------
   TIME STEP LENGTH 1.75200E+05  2920.0      48.667      2.0278     5.55175E-03
 STRESS PERIOD TIME 8.76000E+05  14600.      243.33      10.139     2.77588E-02
         TOTAL TIME 3.50400E+06  58400.      973.33      40.556     0.11104    
1
 
 SOLVING FOR HEAD 
                                                   Max.-Head-Change                         Max.-Flux-Residual
  Residual-Control   Outer-Iter.   Inner-Iter.     Column Row Layer    Maximum-Head-Change  Column Row Layer    Maximum-Flux-Residual          L2-NORM 
          0                 1           2             8    2     2       0.4772582653E-01       6    5    2        -0.1139514776E+01      0.4763649311E+01
          0                 2           2             6    5     2       0.3780951778E-02       6    5    2         0.1139463001E+00      0.1784548026E+00
          0                 3           1             6    5     2      -0.2163419896E-03       6    5    2        -0.6836823799E-02      0.9571273192E-02

    ------------------------------------------------
       NWT REQUIRED            3 OUTER ITERATIONS 
       AND A TOTAL OF          5 INNER ITERATIONS.
    ------------------------------------------------

 NO OUTPUT CONTROL FOR STRESS PERIOD    2   TIME STEP    6
 ..........LAKE  1 IS DRY..........
 
 SOLVING FOR HEAD 
                                                   Max.-Head-Change                         Max.-Flux-Residual
  Residual-Control   Outer-Iter.   Inner-Iter.     Column Row Layer    Maximum-Head-Change  Column Row Layer    Maximum-Flux-Residual          L2-NORM 
          0                 1           2             8    2     2       0.4771542991E-01       6    5    2        -0.1033950107E+01      0.4609953958E+01
          0                 2           2             6    5     2       0.3438913125E-02       6    5    2         0.1033907177E+00      0.1646576962E+00
          0                 3           1             6    5     2      -0.1963850644E-03       6    5    2        -0.6203480957E-02      0.8821835050E-02

    ------------------------------------------------
       NWT REQUIRED            3 OUTER ITERATIONS 
       AND A TOTAL OF          5 INNER ITERATIONS.
    ------------------------------------------------

 NO OUTPUT CONTROL FOR STRESS PERIOD    2   TIME STEP    7
 ..........LAKE  1 IS DRY..........
 
 SOLVING FOR HEAD 
                                                   Max.-Head-Change                         Max.-Flux-Residual
  Residual-Control   Outer-Iter.   Inner-Iter.     Column Row Layer    Maximum-Head-Change  Column Row Layer    Maximum-Flux-Residual          L2-NORM 
          0                 1           2             8    2     2       0.4770100594E-01       6    5    2         0.9840800416E+00      0.4357363918E+01
          0                 2           2             6    5     2      -0.2772470020E-02       6    5    2        -0.9063336464E-01      0.1242140380E+00
          0                 3           1             6    6     2      -0.6946840991E-04       6    6    2        -0.2335768700E-02      0.3195644656E-02

    ------------------------------------------------
       NWT REQUIRED            3 OUTER ITERATIONS 
       AND A TOTAL OF          5 INNER ITERATIONS.
    ------------------------------------------------

 NO OUTPUT CONTROL FOR STRESS PERIOD    2   TIME STEP    8
 ..........LAKE  1 IS DRY..........
 
 SOLVING FOR HEAD 
                                                   Max.-Head-Change                         Max.-Flux-Residual
  Residual-Control   Outer-Iter.   Inner-Iter.     Column Row Layer    Maximum-Head-Change  Column Row Layer    Maximum-Flux-Residual          L2-NORM 
          0                 1           2             8    2     2       0.4768341119E-01       6    5    2         0.8634046221E+00      0.4199879768E+01
          0                 2           2             6    5     2      -0.1435055768E-02       6    5    2        -0.4705542833E-01      0.8820508733E-01
          0                 3           1             6    5     2       0.2232903400E-04       6    5    2         0.7713890304E-03      0.1866035444E-02

    ------------------------------------------------
       NWT REQUIRED            3 OUTER ITERATIONS 
       AND A TOTAL OF          5 INNER ITERATIONS.
    ------------------------------------------------

 NO OUTPUT CONTROL FOR STRESS PERIOD    2   TIME STEP    9
 ..........LAKE  1 IS DRY..........
 
 SOLVING FOR HEAD 
                                                   Max.-Head-Change                         Max.-Flux-Residual
  Residual-Control   Outer-Iter.   Inner-Iter.     Column Row Layer    Maximum-Head-Change  Column Row Layer    Maximum-Flux-Residual          L2-NORM 
          0                 1           2             8    2     2       0.4764542786E-01       6    5    2         0.7087063354E+00      0.4060430247E+01
          0                 2           2             6    5     2      -0.1178148218E-02       6    5    2        -0.3841712301E-01      0.8167359848E-01
          0                 3           1             7   12     2       0.2202915694E-04       7   12    2         0.6405256368E-03      0.1914390960E-02

    ------------------------------------------------
       NWT REQUIRED            3 OUTER ITERATIONS 
       AND A TOTAL OF          5 INNER ITERATIONS.
    ------------------------------------------------

 OUTPUT CONTROL FOR STRESS PERIOD    2   TIME STEP   10
    PRINT BUDGET
    SAVE BUDGET

            WELLS   PERIOD    2   STEP  10
 WELL      1   LAYER   2   ROW     6   COL     4   RATE    -2.00000    
 WELL      2   LAYER   2   ROW     6   COL     5   RATE    -2.00000    
 WELL      3   LAYER   2   ROW     7   COL     4   RATE    -2.00000    
 WELL      4   LAYER   2   ROW     7   COL     5   RATE    -2.00000    
 WELL      5   LAYER   2   ROW     8   COL     4   RATE    -2.00000    
 WELL      6   LAYER   2   ROW     8   COL     5   RATE    -2.00000    
 WELL      7   LAYER   2   ROW     9   COL     4   RATE    -2.00000    
 WELL      8   LAYER   2   ROW     9   COL     5   RATE    -2.00000    
 WELL      9   LAYER   2   ROW    10   COL     4   RATE    -2.00000    
 WELL     10   LAYER   2   ROW    10   COL     5   RATE    -2.00000    

  HEAD DEP BOUNDS   PERIOD    2   STEP    10
 BOUNDARY      1   LAYER   2   ROW    13   COL     1   RATE   -0.288408    
 BOUNDARY      2   LAYER   2   ROW    14   COL     9   RATE    0.214321    



 STREAM LISTING     PERIOD      2   STEP       10

 LAYER ROW COL. STREAM  RCH.  FLOW INTO     FLOW TO   FLOW OUT OF   OVRLND.     DIRECT     STREAM       STREAM     STREAM     STREAM   STREAMBED  STREAMBED
                SEG.NO.  NO.  STRM. RCH.    AQUIFER    STRM. RCH.    RUNOFF     PRECIP       ET          HEAD       DEPTH      WIDTH   CONDCTNC.   GRADIENT

   2    1    1     1     1    2.6000E+01  1.9980E+00   2.4002E+01  0.000E+00  0.000E+00  0.000E+00  1.09423E+03  1.180E+00  1.306E+01  5.878E-01  1.133E+00
   2    2    2     1     2    2.4002E+01  3.6151E+00   2.0387E+01  0.000E+00  0.000E+00  0.000E+00  1.08920E+03  1.137E+00  1.248E+01  8.739E-01  1.379E+00
   2    3    3     1     3    2.0387E+01  2.8624E+00   1.7524E+01  0.000E+00  0.000E+00  0.000E+00  1.08350E+03  1.083E+00  1.168E+01  7.010E-01  1.361E+00
   2    3    4     1     4    1.7524E+01  2.4292E+00   1.5095E+01  0.000E+00  0.000E+00  0.000E+00  1.07844E+03  1.037E+00  1.084E+01  6.017E-01  1.346E+00
   2    4    5     2     1    5.0953E+00  2.6429E+00   2.4524E+00  0.000E+00  0.000E+00  0.000E+00  1.07232E+03  3.883E-01  1.200E+01  7.800E-01  1.129E+00
   2    5    6     2     2    2.4524E+00  1.9332E+00   5.1922E-01  0.000E+00  0.000E+00  0.000E+00  1.06673E+03  2.220E-01  1.200E+01  6.000E-01  1.074E+00
   2    6    6     2     3    5.1922E-01  5.1922E-01   0.0000E+00  0.000E+00  0.000E+00  0.000E+00  1.06182E+03  2.658E-02  1.200E+01  6.000E-01  1.009E+00
   2    7    6     2     4    0.0000E+00  0.0000E+00   0.0000E+00  0.000E+00  0.000E+00  0.000E+00  1.05708E+03  0.000E+00  1.200E+01  6.000E-01  1.000E+00
   2    8    6     2     5    0.0000E+00  0.0000E+00   0.0000E+00  0.000E+00  0.000E+00  0.000E+00  1.05236E+03  0.000E+00  1.200E+01  6.000E-01  1.000E+00
   2    3    5     3     1    1.0000E+01  2.8252E+00   7.1748E+00  0.000E+00  0.000E+00  0.000E+00  1.07555E+03  1.909E+00  9.636E+00  7.227E-01  1.955E+00
   2    3    6     3     2    7.1748E+00  2.4905E+00   4.6843E+00  0.000E+00  0.000E+00  0.000E+00  1.07264E+03  1.727E+00  8.909E+00  6.682E-01  1.864E+00
   2    3    7     3     3    4.6843E+00  1.9718E+00   2.7125E+00  0.000E+00  0.000E+00  0.000E+00  1.06987E+03  1.555E+00  8.218E+00  5.547E-01  1.777E+00
   2    4    8     3     4    2.7125E+00  2.2567E+00   4.5579E-01  0.000E+00  0.000E+00  0.000E+00  1.06682E+03  1.364E+00  7.455E+00  6.709E-01  1.682E+00
   2    5    8     3     5    4.5579E-01  4.5579E-01   0.0000E+00  0.000E+00  0.000E+00  0.000E+00  1.06362E+03  0.000E+00  6.655E+00  4.991E-01  1.582E+00
   2    6    8     3     6    0.0000E+00  0.0000E+00   0.0000E+00  0.000E+00  0.000E+00  0.000E+00  1.06055E+03  0.000E+00  6.145E+00  1.844E-01  1.000E+00
   2    5   10     4     1    1.0000E+01  9.0525E-01   9.0947E+00  0.000E+00  0.000E+00  0.000E+00  1.07835E+03  6.210E-01  1.000E+01  2.500E-01  1.207E+00
   2    5    9     4     2    9.0947E+00  1.7835E+00   7.3113E+00  0.000E+00  0.000E+00  0.000E+00  1.07148E+03  5.670E-01  1.000E+01  5.000E-01  1.189E+00
   2    6    8     4     3    7.3113E+00  1.2257E+00   6.0855E+00  0.000E+00  0.000E+00  0.000E+00  1.06368E+03  5.021E-01  1.000E+01  3.500E-01  1.167E+00
   2    6    8     5     1    6.0855E+00  1.4716E+00   4.6139E+00  0.000E+00  0.000E+00  0.000E+00  1.05854E+03  5.396E-01  1.039E+01  4.158E-01  1.180E+00
   2    7    7     5     2    4.6139E+00  1.4897E+00   3.1242E+00  0.000E+00  0.000E+00  0.000E+00  1.05398E+03  4.817E-01  8.557E+00  4.279E-01  1.161E+00
   2    8    7     5     3    3.1242E+00  8.2855E-01   2.2957E+00  0.000E+00  0.000E+00  0.000E+00  1.04968E+03  4.253E-01  6.911E+00  2.419E-01  1.142E+00
   2    8    6     5     4    2.2957E+00  4.9455E-01   1.8011E+00  0.000E+00  0.000E+00  0.000E+00  1.04664E+03  3.856E-01  5.843E+00  1.461E-01  1.129E+00
   2    9    6     6     1    1.8011E+00  1.8011E+00   0.0000E+00  0.000E+00  0.000E+00  0.000E+00  1.04278E+03  5.669E-02  1.200E+01  6.000E-01  1.019E+00
   2   10    7     6     2    0.0000E+00  0.0000E+00   0.0000E+00  0.000E+00  0.000E+00  0.000E+00  1.03818E+03  0.000E+00  1.200E+01  6.000E-01  1.000E+00
   2   11    7     6     3    0.0000E+00  0.0000E+00   0.0000E+00  0.000E+00  0.000E+00  0.000E+00  1.03364E+03  0.000E+00  1.200E+01  6.000E-01  1.000E+00
   2   12    7     6     4    0.0000E+00  0.0000E+00   0.0000E+00  0.000E+00  0.000E+00  0.000E+00  1.02909E+03  0.000E+00  1.200E+01  6.000E-01  5.665E-01
   2   13    7     6     5    0.0000E+00 -7.3130E-01   7.3130E-01  0.000E+00  0.000E+00  0.000E+00  1.02601E+03  9.679E-02  1.200E+01  2.400E-01 -1.016E+00
   2   14    9     7     1    1.5000E+02  2.8206E+00   1.4718E+02  0.000E+00  0.000E+00  0.000E+00  1.03986E+03  2.284E+00  5.528E+01  5.591E+00  1.682E-01
   2   13    8     7     2    1.4718E+02  3.9460E+00   1.4323E+02  0.000E+00  0.000E+00  0.000E+00  1.03477E+03  2.266E+00  5.520E+01  6.140E+00  2.142E-01
   2   13    7     7     3    1.4323E+02  3.4119E+00   1.3982E+02  0.000E+00  0.000E+00  0.000E+00  1.02967E+03  2.246E+00  5.511E+01  5.572E+00  2.041E-01
   2   13    6     8     1    1.4055E+02  1.5314E+00   1.3902E+02  0.000E+00  0.000E+00  0.000E+00  1.02462E+03  2.743E+00  3.978E+01  4.054E+00  1.259E-01
   2   13    5     8     2    1.3902E+02 -1.7503E+00   1.4077E+02  0.000E+00  0.000E+00  0.000E+00  1.01837E+03  2.744E+00  3.979E+01  4.055E+00 -1.439E-01
   2   13    4     8     3    1.4077E+02 -4.7939E+00   1.4557E+02  0.000E+00  0.000E+00  0.000E+00  1.01214E+03  2.768E+00  4.014E+01  4.090E+00 -3.907E-01
   2   13    3     8     4    1.4557E+02 -5.5574E+00   1.5112E+02  0.000E+00  0.000E+00  0.000E+00  1.00593E+03  2.805E+00  4.067E+01  4.145E+00 -4.469E-01
   2   13    2     8     5    1.5112E+02 -3.4162E+00   1.5454E+02  0.000E+00  0.000E+00  0.000E+00  9.99712E+02  2.837E+00  4.113E+01  4.191E+00 -2.717E-01
   2   13    1     8     6    1.5454E+02 -2.1742E+00   1.5671E+02  0.000E+00  0.000E+00  0.000E+00  9.94731E+02  2.856E+00  4.141E+01  2.532E+00 -2.862E-01
   2    4    5     9     1    0.0000E+00  0.0000E+00   0.0000E+00  0.000E+00  0.000E+00  0.000E+00  1.06000E+03  0.000E+00  2.000E+01  2.000E-03  1.000E+00
   2    4    5    10     1    0.0000E+00  0.0000E+00   0.0000E+00  0.000E+00  0.000E+00  0.000E+00  1.08000E+03  0.000E+00  2.000E+01  2.000E-03  1.000E+00



 ..........LAKE  1 IS DRY..........

     SECTIONS OF THE LAKE BOTTOM HAVE BECOME DRY.  THE DRYSECTIONS
     LIE ABOVE THE FOLLOWING  1 AQUIFER CELLS (LAYER,ROW,COLUMN):
     (  2,  4,  5)  (

 PERIOD     2     TIME STEP    10     TIME STEP LENGTH  1.7520E+05
 PERIOD TIME  1.7520E+06     TOTAL SIMULATION TIME  4.3800E+06


                 HYDROLOGIC BUDGET SUMMARIES FOR SIMULATED LAKES
     (ALL FLUID FLUXES ARE VOLUMES ADDED TO THE LAKE DURING PRESENT TIME STEP)
     ----------------------------------------------------------------------------------------
 LAKE    STAGE         VOLUME     VOL. CHANGE      PRECIP     EVAPORATION    SPECIFIED RUNOFF     COMPUTED RUNOFF    TOTAL RUNOFF
   1  1.074500E+03  0.000000E+00  0.000000E+00  0.000000E+00  0.000000E+00   0.000000E+00          0.000000E+00      0.000000E+00

            GROUND WATER            SURFACE WATER        WATER          UZF INFIL.
 LAKE    INFLOW     OUTFLOW      INFLOW     OUTFLOW       USE        FROM LAKE
   1  0.0000E+00  0.0000E+00  0.0000E+00  0.0000E+00  0.0000E+00       0.0000E+00

      CONNECTED LAKE   TIME-STEP         STAGE-CHANGE          PERCENT
 LAKE    INFLUX      SURFACE AREA   TIME STEP  CUMULATIVE    DISCREPANCY
   1   0.0000E+00     0.0000E+00   0.0000E+00  0.0000E+00       0.000
 --------------------------------------------------------------------------------



            CUMULATIVE HYDROLOGIC BUDGET SUMMARIES FOR SIMULATED LAKES
     (ALL FLUID FLUXES ARE SUMS OF VOLUMES ADDED TO THE LAKE SINCE INITIAL TIME)
     ---------------------------------------------------------------------------
 LAKE       PRECIP       EVAP     SPECIFIED RUNOFF   COMPUTED RUNOFF   TOTAL RUNOFF
   1     0.0000E+00  0.0000E+00       0.0000E+00       0.0000E+00       0.0000E+00

            GROUND WATER            SURFACE WATER       UZF INFIL.
 LAKE    INFLOW     OUTFLOW      INFLOW     OUTFLOW     FROM LAKE
   1  0.0000E+00  0.0000E+00  0.0000E+00  0.0000E+00    0.0000E+00

         WATER    CONNECTED LAKE   CHANGE       PERCENT
 LAKE     USE         INFLUX       IN VOL.    DISCREPANCY
   1   0.0000E+00   0.0000E+00   0.0000E+00      0.000
 --------------------------------------------------------------------------------

 UBDSV3 SAVING "           GW ET" ON UNIT  61 AT TIME STEP 10, STRESS PERIOD 2
 UBDSV3 SAVING "    UZF RECHARGE" ON UNIT  61 AT TIME STEP 10, STRESS PERIOD 2
 UBDSV3 SAVING " SURFACE LEAKAGE" ON UNIT  61 AT TIME STEP 10, STRESS PERIOD 2
 UBDSV3 SAVING "       HORT+DUNN" ON UNIT  61 AT TIME STEP 10, STRESS PERIOD 2
 UBDSV3 SAVING "  STORAGE CHANGE" ON UNIT  61 AT TIME STEP 10, STRESS PERIOD 2


UNSATURATED ZONE PACKAGE VOLUMETRIC BUDGET FOR  TIME STEP    10 STRESS PERIOD    2
  ------------------------------------------------------------------------------



     CUMULATIVE VOLUMES      L**3       RATES FOR THIS TIME STEP      L**3/T
     ------------------                 ------------------------

           IN:                                      IN:
           ---                                      ---
        INFILTRATION =   120655860.0000          INFILTRATION =          67.6000

          OUT:                                     OUT:
          ----                                     ----
              UZF ET =   228702302.5857                UZF ET =         130.4437
        UZF RECHARGE =    74159927.3728          UZF RECHARGE =          37.3116

            IN - OUT =  -182206369.9585              IN - OUT =        -100.1553

          STORAGE:                                 STORAGE:
          --------                                 --------
      STORAGE CHANGE =  -182169798.8993        STORAGE CHANGE =        -100.1403

 PERCENT DISCREPANCY IS DIFFERENCE BETWEEN IN-OUT MINUS CHANGE IN STORAGE
 DIVIDED BY THE AVERAGE OF IN AND OUT TIMES 100

 PERCENT DISCREPANCY =          -0.00     PERCENT DISCREPANCY =          -0.01






1
  VOLUMETRIC BUDGET FOR ENTIRE MODEL AT END OF TIME STEP   10, STRESS PERIOD   2
  ------------------------------------------------------------------------------

     CUMULATIVE VOLUMES      L**3       RATES FOR THIS TIME STEP      L**3/T
     ------------------                 ------------------------

           IN:                                      IN:
           ---                                      ---
             STORAGE     =     7075127.5000               STORAGE     =           0.9386
       CONSTANT HEAD     =           0.0000         CONSTANT HEAD     =           0.0000
               WELLS     =           0.0000                 WELLS     =           0.0000
     HEAD DEP BOUNDS     =      943990.3125       HEAD DEP BOUNDS     =           0.2143
      STREAM LEAKAGE     =   212130240.0000        STREAM LEAKAGE     =          47.7098
       LAKE  SEEPAGE     =           0.0000         LAKE  SEEPAGE     =           0.0000
        UZF RECHARGE     =    74159920.0000          UZF RECHARGE     =          37.3116
               GW ET     =           0.0000                 GW ET     =           0.0000
     SURFACE LEAKAGE     =           0.0000       SURFACE LEAKAGE     =           0.0000

                TOTAL IN =   294309280.0000                  TOTAL IN =          86.1744

          OUT:                                     OUT:
          ----                                     ----
             STORAGE     =    72834616.0000               STORAGE     =          37.0326
       CONSTANT HEAD     =           0.0000         CONSTANT HEAD     =           0.0000
               WELLS     =    87600000.0000                 WELLS     =          20.0000
     HEAD DEP BOUNDS     =     1256872.0000       HEAD DEP BOUNDS     =           0.2884
      STREAM LEAKAGE     =    76773296.0000        STREAM LEAKAGE     =          18.4233
       LAKE  SEEPAGE     =           0.0000         LAKE  SEEPAGE     =           0.0000
        UZF RECHARGE     =           0.0000          UZF RECHARGE     =           0.0000
               GW ET     =    55844908.0000                 GW ET     =          10.4300
     SURFACE LEAKAGE     =           0.0000       SURFACE LEAKAGE     =           0.0000

               TOTAL OUT =   294309696.0000                 TOTAL OUT =          86.1743

                IN - OUT =        -416.0000                  IN - OUT =       6.1035E-05

     PERCENT DISCREPANCY =          -0.00         PERCENT DISCREPANCY =           0.00






         TIME SUMMARY AT END OF TIME STEP   10 IN STRESS PERIOD    2
                    SECONDS     MINUTES      HOURS       DAYS        YEARS
                    -----------------------------------------------------------
   TIME STEP LENGTH 1.75200E+05  2920.0      48.667      2.0278     5.55175E-03
 STRESS PERIOD TIME 1.75200E+06  29200.      486.67      20.278     5.55175E-02
         TOTAL TIME 4.38000E+06  73000.      1216.7      50.694     0.13879    
1
 
 SOLVING FOR HEAD 
                                                   Max.-Head-Change                         Max.-Flux-Residual
  Residual-Control   Outer-Iter.   Inner-Iter.     Column Row Layer    Maximum-Head-Change  Column Row Layer    Maximum-Flux-Residual          L2-NORM 
          0                 1           2             8    2     2       0.4758533501E-01       8    2    2         0.6186983842E+00      0.3973174652E+01
          0                 2           1             6    5     2      -0.9552491371E-03       6    5    2        -0.3136542475E-01      0.7793183874E-01

    ------------------------------------------------
       NWT REQUIRED            2 OUTER ITERATIONS 
       AND A TOTAL OF          3 INNER ITERATIONS.
    ------------------------------------------------

 NO OUTPUT CONTROL FOR STRESS PERIOD    2   TIME STEP   11
 ..........LAKE  1 IS DRY..........
 
 SOLVING FOR HEAD 
                                                   Max.-Head-Change                         Max.-Flux-Residual
  Residual-Control   Outer-Iter.   Inner-Iter.     Column Row Layer    Maximum-Head-Change  Column Row Layer    Maximum-Flux-Residual          L2-NORM 
          0                 1           2             8    2     2       0.4750689046E-01       8    2    2         0.6178869192E+00      0.3896214634E+01
          0                 2           1             6    6     2       0.1026163111E-02       6    6    2         0.3251618741E-01      0.7760806125E-01
          0                 3           1             7   12     2       0.2628841346E-04       3   12    2         0.7585600142E-03      0.2199317224E-02

    ------------------------------------------------
       NWT REQUIRED            3 OUTER ITERATIONS 
       AND A TOTAL OF          4 INNER ITERATIONS.
    ------------------------------------------------

 NO OUTPUT CONTROL FOR STRESS PERIOD    2   TIME STEP   12
 ..........LAKE  1 IS DRY..........
 
 SOLVING FOR HEAD 
                                                   Max.-Head-Change                         Max.-Flux-Residual
  Residual-Control   Outer-Iter.   Inner-Iter.     Column Row Layer    Maximum-Head-Change  Column Row Layer    Maximum-Flux-Residual          L2-NORM 
          0                 1           2             8    2     2       0.4741367081E-01       8    2    2         0.6168467194E+00      0.3787458765E+01
          0                 2           1             8    4     2      -0.9298368487E-03       6    6    2         0.2746800483E-01      0.7503934931E-01

    ------------------------------------------------
       NWT REQUIRED            2 OUTER ITERATIONS 
       AND A TOTAL OF          3 INNER ITERATIONS.
    ------------------------------------------------

 NO OUTPUT CONTROL FOR STRESS PERIOD    2   TIME STEP   13
 ..........LAKE  1 IS DRY..........
 
 SOLVING FOR HEAD 
                                                   Max.-Head-Change                         Max.-Flux-Residual
  Residual-Control   Outer-Iter.   Inner-Iter.     Column Row Layer    Maximum-Head-Change  Column Row Layer    Maximum-Flux-Residual          L2-NORM 
          0                 1           2             8    2     2       0.4730280375E-01       8    2    2         0.6156127791E+00      0.3661382526E+01
          0                 2           1             8    4     2      -0.9085273105E-03       6    6    2         0.2335023758E-01      0.7336776973E-01

    ------------------------------------------------
       NWT REQUIRED            2 OUTER ITERATIONS 
       AND A TOTAL OF          3 INNER ITERATIONS.
    ------------------------------------------------

 NO OUTPUT CONTROL FOR STRESS PERIOD    2   TIME STEP   14
 ..........LAKE  1 IS DRY..........
 
 SOLVING FOR HEAD 
                                                   Max.-Head-Change                         Max.-Flux-Residual
  Residual-Control   Outer-Iter.   Inner-Iter.     Column Row Layer    Maximum-Head-Change  Column Row Layer    Maximum-Flux-Residual          L2-NORM 
          0                 1           2             8    2     2       0.4717946722E-01       8    2    2         0.6141475889E+00      0.3555165632E+01
          0                 2           1             8    4     2      -0.8306235657E-03       6    6    2         0.1996357431E-01      0.7210530629E-01

    ------------------------------------------------
       NWT REQUIRED            2 OUTER ITERATIONS 
       AND A TOTAL OF          3 INNER ITERATIONS.
    ------------------------------------------------

 OUTPUT CONTROL FOR STRESS PERIOD    2   TIME STEP   15
    PRINT BUDGET
    PRINT HEAD FOR ALL LAYERS
    SAVE HEAD FOR ALL LAYERS
    SAVE BUDGET

            WELLS   PERIOD    2   STEP  15
 WELL      1   LAYER   2   ROW     6   COL     4   RATE    -2.00000    
 WELL      2   LAYER   2   ROW     6   COL     5   RATE    -2.00000    
 WELL      3   LAYER   2   ROW     7   COL     4   RATE    -2.00000    
 WELL      4   LAYER   2   ROW     7   COL     5   RATE    -2.00000    
 WELL      5   LAYER   2   ROW     8   COL     4   RATE    -2.00000    
 WELL      6   LAYER   2   ROW     8   COL     5   RATE    -2.00000    
 WELL      7   LAYER   2   ROW     9   COL     4   RATE    -2.00000    
 WELL      8   LAYER   2   ROW     9   COL     5   RATE    -2.00000    
 WELL      9   LAYER   2   ROW    10   COL     4   RATE    -2.00000    
 WELL     10   LAYER   2   ROW    10   COL     5   RATE    -2.00000    

  HEAD DEP BOUNDS   PERIOD    2   STEP    15
 BOUNDARY      1   LAYER   2   ROW    13   COL     1   RATE   -0.289189    
 BOUNDARY      2   LAYER   2   ROW    14   COL     9   RATE    0.214120    



 STREAM LISTING     PERIOD      2   STEP       15

 LAYER ROW COL. STREAM  RCH.  FLOW INTO     FLOW TO   FLOW OUT OF   OVRLND.     DIRECT     STREAM       STREAM     STREAM     STREAM   STREAMBED  STREAMBED
                SEG.NO.  NO.  STRM. RCH.    AQUIFER    STRM. RCH.    RUNOFF     PRECIP       ET          HEAD       DEPTH      WIDTH   CONDCTNC.   GRADIENT

   2    1    1     1     1    2.5000E+01  1.9559E+00   2.3044E+01  0.000E+00  0.000E+00  0.000E+00  1.09421E+03  1.165E+00  1.287E+01  5.790E-01  1.126E+00
   2    2    2     1     2    2.3044E+01  3.5443E+00   1.9500E+01  0.000E+00  0.000E+00  0.000E+00  1.08918E+03  1.122E+00  1.228E+01  8.599E-01  1.374E+00
   2    3    3     1     3    1.9500E+01  2.7880E+00   1.6712E+01  0.000E+00  0.000E+00  0.000E+00  1.08349E+03  1.069E+00  1.142E+01  6.852E-01  1.356E+00
   2    3    4     1     4    1.6712E+01  2.3622E+00   1.4350E+01  0.000E+00  0.000E+00  0.000E+00  1.07843E+03  1.022E+00  1.058E+01  5.873E-01  1.341E+00
   2    4    5     2     1    4.3496E+00  2.6064E+00   1.7432E+00  0.000E+00  0.000E+00  0.000E+00  1.07228E+03  3.415E-01  1.200E+01  7.800E-01  1.114E+00
   2    5    6     2     2    1.7432E+00  1.7432E+00   0.0000E+00  0.000E+00  0.000E+00  0.000E+00  1.06656E+03  5.497E-02  1.200E+01  6.000E-01  1.018E+00
   2    6    6     2     3    0.0000E+00  0.0000E+00   0.0000E+00  0.000E+00  0.000E+00  0.000E+00  1.06179E+03  0.000E+00  1.200E+01  6.000E-01  1.000E+00
   2    7    6     2     4    0.0000E+00  0.0000E+00   0.0000E+00  0.000E+00  0.000E+00  0.000E+00  1.05708E+03  0.000E+00  1.200E+01  6.000E-01  1.000E+00
   2    8    6     2     5    0.0000E+00  0.0000E+00   0.0000E+00  0.000E+00  0.000E+00  0.000E+00  1.05236E+03  0.000E+00  1.200E+01  6.000E-01  1.000E+00
   2    3    5     3     1    1.0000E+01  2.8252E+00   7.1748E+00  0.000E+00  0.000E+00  0.000E+00  1.07555E+03  1.909E+00  9.636E+00  7.227E-01  1.955E+00
   2    3    6     3     2    7.1748E+00  2.4905E+00   4.6843E+00  0.000E+00  0.000E+00  0.000E+00  1.07264E+03  1.727E+00  8.909E+00  6.682E-01  1.864E+00
   2    3    7     3     3    4.6843E+00  1.9718E+00   2.7125E+00  0.000E+00  0.000E+00  0.000E+00  1.06987E+03  1.555E+00  8.218E+00  5.547E-01  1.777E+00
   2    4    8     3     4    2.7125E+00  2.2567E+00   4.5579E-01  0.000E+00  0.000E+00  0.000E+00  1.06682E+03  1.364E+00  7.455E+00  6.709E-01  1.682E+00
   2    5    8     3     5    4.5579E-01  4.5579E-01   0.0000E+00  0.000E+00  0.000E+00  0.000E+00  1.06362E+03  0.000E+00  6.655E+00  4.991E-01  1.582E+00
   2    6    8     3     6    0.0000E+00  0.0000E+00   0.0000E+00  0.000E+00  0.000E+00  0.000E+00  1.06055E+03  0.000E+00  6.145E+00  1.844E-01  1.000E+00
   2    5   10     4     1    1.0000E+01  9.0525E-01   9.0947E+00  0.000E+00  0.000E+00  0.000E+00  1.07835E+03  6.210E-01  1.000E+01  2.500E-01  1.207E+00
   2    5    9     4     2    9.0947E+00  1.7835E+00   7.3113E+00  0.000E+00  0.000E+00  0.000E+00  1.07148E+03  5.670E-01  1.000E+01  5.000E-01  1.189E+00
   2    6    8     4     3    7.3113E+00  1.2257E+00   6.0855E+00  0.000E+00  0.000E+00  0.000E+00  1.06368E+03  5.021E-01  1.000E+01  3.500E-01  1.167E+00
   2    6    8     5     1    6.0855E+00  1.4716E+00   4.6139E+00  0.000E+00  0.000E+00  0.000E+00  1.05854E+03  5.396E-01  1.039E+01  4.158E-01  1.180E+00
   2    7    7     5     2    4.6139E+00  1.4897E+00   3.1242E+00  0.000E+00  0.000E+00  0.000E+00  1.05398E+03  4.817E-01  8.557E+00  4.279E-01  1.161E+00
   2    8    7     5     3    3.1242E+00  8.2855E-01   2.2957E+00  0.000E+00  0.000E+00  0.000E+00  1.04968E+03  4.253E-01  6.911E+00  2.419E-01  1.142E+00
   2    8    6     5     4    2.2957E+00  4.9455E-01   1.8011E+00  0.000E+00  0.000E+00  0.000E+00  1.04664E+03  3.856E-01  5.843E+00  1.461E-01  1.129E+00
   2    9    6     6     1    1.8011E+00  1.8011E+00   0.0000E+00  0.000E+00  0.000E+00  0.000E+00  1.04278E+03  5.669E-02  1.200E+01  6.000E-01  1.019E+00
   2   10    7     6     2    0.0000E+00  0.0000E+00   0.0000E+00  0.000E+00  0.000E+00  0.000E+00  1.03818E+03  0.000E+00  1.200E+01  6.000E-01  1.000E+00
   2   11    7     6     3    0.0000E+00  0.0000E+00   0.0000E+00  0.000E+00  0.000E+00  0.000E+00  1.03364E+03  0.000E+00  1.200E+01  6.000E-01  1.000E+00
   2   12    7     6     4    0.0000E+00  0.0000E+00   0.0000E+00  0.000E+00  0.000E+00  0.000E+00  1.02909E+03  0.000E+00  1.200E+01  6.000E-01  5.536E-01
   2   13    7     6     5    0.0000E+00 -7.3704E-01   7.3704E-01  0.000E+00  0.000E+00  0.000E+00  1.02601E+03  9.724E-02  1.200E+01  2.400E-01 -1.024E+00
   2   14    9     7     1    1.5000E+02  2.7914E+00   1.4721E+02  0.000E+00  0.000E+00  0.000E+00  1.03986E+03  2.284E+00  5.528E+01  5.591E+00  1.664E-01
   2   13    8     7     2    1.4721E+02  3.9031E+00   1.4331E+02  0.000E+00  0.000E+00  0.000E+00  1.03477E+03  2.266E+00  5.520E+01  6.141E+00  2.119E-01
   2   13    7     7     3    1.4331E+02  3.2803E+00   1.4003E+02  0.000E+00  0.000E+00  0.000E+00  1.02967E+03  2.247E+00  5.511E+01  5.573E+00  1.962E-01
   2   13    6     8     1    1.4076E+02  1.3899E+00   1.3937E+02  0.000E+00  0.000E+00  0.000E+00  1.02462E+03  2.745E+00  3.981E+01  4.057E+00  1.142E-01
   2   13    5     8     2    1.3937E+02 -1.8357E+00   1.4121E+02  0.000E+00  0.000E+00  0.000E+00  1.01837E+03  2.747E+00  3.983E+01  4.059E+00 -1.508E-01
   2   13    4     8     3    1.4121E+02 -4.8709E+00   1.4608E+02  0.000E+00  0.000E+00  0.000E+00  1.01215E+03  2.771E+00  4.019E+01  4.095E+00 -3.965E-01
   2   13    3     8     4    1.4608E+02 -5.6335E+00   1.5171E+02  0.000E+00  0.000E+00  0.000E+00  1.00593E+03  2.809E+00  4.073E+01  4.151E+00 -4.524E-01
   2   13    2     8     5    1.5171E+02 -3.4587E+00   1.5517E+02  0.000E+00  0.000E+00  0.000E+00  9.99716E+02  2.841E+00  4.119E+01  4.198E+00 -2.746E-01
   2   13    1     8     6    1.5517E+02 -2.2183E+00   1.5739E+02  0.000E+00  0.000E+00  0.000E+00  9.94736E+02  2.861E+00  4.148E+01  2.536E+00 -2.916E-01
   2    4    5     9     1    0.0000E+00  0.0000E+00   0.0000E+00  0.000E+00  0.000E+00  0.000E+00  1.06000E+03  0.000E+00  2.000E+01  2.000E-03  1.000E+00
   2    4    5    10     1    0.0000E+00  0.0000E+00   0.0000E+00  0.000E+00  0.000E+00  0.000E+00  1.08000E+03  0.000E+00  2.000E+01  2.000E-03  1.000E+00



 ..........LAKE  1 IS DRY..........

     SECTIONS OF THE LAKE BOTTOM HAVE BECOME DRY.  THE DRYSECTIONS
     LIE ABOVE THE FOLLOWING  1 AQUIFER CELLS (LAYER,ROW,COLUMN):
     (  2,  4,  5)  (

 PERIOD     2     TIME STEP    15     TIME STEP LENGTH  1.7520E+05
 PERIOD TIME  2.6280E+06     TOTAL SIMULATION TIME  5.2560E+06


                 HYDROLOGIC BUDGET SUMMARIES FOR SIMULATED LAKES
     (ALL FLUID FLUXES ARE VOLUMES ADDED TO THE LAKE DURING PRESENT TIME STEP)
     ----------------------------------------------------------------------------------------
 LAKE    STAGE         VOLUME     VOL. CHANGE      PRECIP     EVAPORATION    SPECIFIED RUNOFF     COMPUTED RUNOFF    TOTAL RUNOFF
   1  1.074500E+03  0.000000E+00  0.000000E+00  0.000000E+00  0.000000E+00   0.000000E+00          0.000000E+00      0.000000E+00

            GROUND WATER            SURFACE WATER        WATER          UZF INFIL.
 LAKE    INFLOW     OUTFLOW      INFLOW     OUTFLOW       USE        FROM LAKE
   1  0.0000E+00  0.0000E+00  0.0000E+00  0.0000E+00  0.0000E+00       0.0000E+00

      CONNECTED LAKE   TIME-STEP         STAGE-CHANGE          PERCENT
 LAKE    INFLUX      SURFACE AREA   TIME STEP  CUMULATIVE    DISCREPANCY
   1   0.0000E+00     0.0000E+00   0.0000E+00  0.0000E+00       0.000
 --------------------------------------------------------------------------------



            CUMULATIVE HYDROLOGIC BUDGET SUMMARIES FOR SIMULATED LAKES
     (ALL FLUID FLUXES ARE SUMS OF VOLUMES ADDED TO THE LAKE SINCE INITIAL TIME)
     ---------------------------------------------------------------------------
 LAKE       PRECIP       EVAP     SPECIFIED RUNOFF   COMPUTED RUNOFF   TOTAL RUNOFF
   1     0.0000E+00  0.0000E+00       0.0000E+00       0.0000E+00       0.0000E+00

            GROUND WATER            SURFACE WATER       UZF INFIL.
 LAKE    INFLOW     OUTFLOW      INFLOW     OUTFLOW     FROM LAKE
   1  0.0000E+00  0.0000E+00  0.0000E+00  0.0000E+00    0.0000E+00

         WATER    CONNECTED LAKE   CHANGE       PERCENT
 LAKE     USE         INFLUX       IN VOL.    DISCREPANCY
   1   0.0000E+00   0.0000E+00   0.0000E+00      0.000
 --------------------------------------------------------------------------------

 UBDSV3 SAVING "           GW ET" ON UNIT  61 AT TIME STEP 15, STRESS PERIOD 2
 UBDSV3 SAVING "    UZF RECHARGE" ON UNIT  61 AT TIME STEP 15, STRESS PERIOD 2
 UBDSV3 SAVING " SURFACE LEAKAGE" ON UNIT  61 AT TIME STEP 15, STRESS PERIOD 2
 UBDSV3 SAVING "       HORT+DUNN" ON UNIT  61 AT TIME STEP 15, STRESS PERIOD 2
 UBDSV3 SAVING "  STORAGE CHANGE" ON UNIT  61 AT TIME STEP 15, STRESS PERIOD 2


UNSATURATED ZONE PACKAGE VOLUMETRIC BUDGET FOR  TIME STEP    15 STRESS PERIOD    2
  ------------------------------------------------------------------------------



     CUMULATIVE VOLUMES      L**3       RATES FOR THIS TIME STEP      L**3/T
     ------------------                 ------------------------

           IN:                                      IN:
           ---                                      ---
        INFILTRATION =   179873460.0000          INFILTRATION =          67.6000

          OUT:                                     OUT:
          ----                                     ----
              UZF ET =   342389970.7830                UZF ET =         128.5233
        UZF RECHARGE =   105142523.3313          UZF RECHARGE =          33.4508

            IN - OUT =  -267659034.1143              IN - OUT =         -94.3741

          STORAGE:                                 STORAGE:
          --------                                 --------
      STORAGE CHANGE =  -267605444.0233        STORAGE CHANGE =         -94.3573

 PERCENT DISCREPANCY IS DIFFERENCE BETWEEN IN-OUT MINUS CHANGE IN STORAGE
 DIVIDED BY THE AVERAGE OF IN AND OUT TIMES 100

 PERCENT DISCREPANCY =          -0.00     PERCENT DISCREPANCY =          -0.01






1
              HEAD IN LAYER 1 AT END OF TIME STEP 15 IN STRESS PERIOD 2
  ---------------------------------------------------------------------------

           1       2       3       4       5       6       7       8       9      10
 ...................................................................................
   1  6999.00 6999.00 6999.00 6999.00 6999.00 6999.00 6999.00 6999.00 6999.00 6999.00
   2  6999.00 6999.00 6999.00 6999.00 6999.00 6999.00 6999.00 6999.00 6999.00 6999.00
   3  6999.00 6999.00 6999.00 6999.00 6999.00 6999.00 6999.00 6999.00 6999.00 6999.00
   4  6999.00 6999.00 6999.00 6999.00 6999.00 6999.00 6999.00 6999.00 6999.00 6999.00
   5  6999.00 6999.00 6999.00 6999.00 6999.00 6999.00 6999.00 6999.00 6999.00 6999.00
   6  6999.00 6999.00 6999.00 6999.00 6999.00 6999.00 6999.00 6999.00 6999.00 6999.00
   7  6999.00 6999.00 6999.00 6999.00 6999.00 6999.00 6999.00 6999.00 6999.00 6999.00
   8  6999.00 6999.00 6999.00 6999.00 6999.00 6999.00 6999.00 6999.00 6999.00 6999.00
   9  6999.00 6999.00 6999.00 6999.00 6999.00 6999.00 6999.00 6999.00 6999.00 6999.00
  10  6999.00 6999.00 6999.00 6999.00 6999.00 6999.00 6999.00 6999.00 6999.00 6999.00
  11  6999.00 6999.00 6999.00 6999.00 6999.00 6999.00 6999.00 6999.00 6999.00 6999.00
  12  6999.00 6999.00 6999.00 6999.00 6999.00 6999.00 6999.00 6999.00 6999.00 6999.00
  13  6999.00 6999.00 6999.00 6999.00 6999.00 6999.00 6999.00 6999.00 6999.00 6999.00
  14  6999.00 6999.00 6999.00 6999.00 6999.00 6999.00 6999.00 6999.00 6999.00 6999.00
  15  6999.00 6999.00 6999.00 6999.00 6999.00 6999.00 6999.00 6999.00 6999.00 6999.00
1
              HEAD IN LAYER 2 AT END OF TIME STEP 15 IN STRESS PERIOD 2
  ---------------------------------------------------------------------------

           1       2       3       4       5       6       7       8       9      10
 ...................................................................................
   1  1090.83 1085.46 6999.00 6999.00 6999.00 6999.00 6999.00 6999.00 6999.00 6999.00
   2  1085.81 1079.60 1072.73 6999.00 6999.00 1062.80 1062.80 1062.37 6999.00 6999.00
   3  6999.00 1069.22 1065.45 1061.55 1061.77 1062.19 1062.66 1061.65 6999.00 6999.00
   4  1057.16 1059.63 1058.65 1055.33 1054.16 1053.35 1054.94 1058.96 1057.55 6999.00
   5  1052.96 1052.52 1051.45 1049.56 1049.33 1049.74 1049.86 1051.60 1054.93 1057.15
   6  1048.79 1047.23 1045.67 1044.06 1044.31 1045.80 1047.18 1049.37 1052.07 1056.04
   7  1045.77 1042.39 1040.68 1039.26 1039.88 1041.79 1043.90 1046.16 1048.47 6999.00
   8  6999.00 1037.28 1036.08 1034.88 1035.62 1037.65 1039.51 1042.80 1043.59 6999.00
   9  6999.00 1031.62 1031.18 1030.46 1031.40 1033.63 1034.84 1037.02 1038.69 6999.00
  10  6999.00 1025.99 1026.28 1026.41 1027.68 1029.77 1031.00 1032.91 1034.81 1035.20
  11  6999.00 1019.26 1020.33 1022.78 1024.76 1026.99 1028.67 1030.84 1033.59 6999.00
  12  1003.03 1009.44 1013.54 1017.93 1021.50 1024.90 1027.43 1030.71 1034.46 6999.00
  13   995.61 1000.54 1007.29 1013.34 1018.82 1024.28 1029.08 1034.13 1036.67 6999.00
  14  6999.00 1006.52 1009.77 1014.56 1019.58 1024.50 1029.73 1035.16 1039.37 6999.00
  15  6999.00 6999.00 1013.40 1016.26 1020.02 1023.45 6999.00 6999.00 6999.00 6999.00

 HEAD WILL BE SAVED ON UNIT   58 AT END OF TIME STEP   15, STRESS PERIOD    2
1
  VOLUMETRIC BUDGET FOR ENTIRE MODEL AT END OF TIME STEP   15, STRESS PERIOD   2
  ------------------------------------------------------------------------------

     CUMULATIVE VOLUMES      L**3       RATES FOR THIS TIME STEP      L**3/T
     ------------------                 ------------------------

           IN:                                      IN:
           ---                                      ---
             STORAGE     =     7906766.5000               STORAGE     =           0.7925
       CONSTANT HEAD     =           0.0000         CONSTANT HEAD     =           0.0000
               WELLS     =           0.0000                 WELLS     =           0.0000
     HEAD DEP BOUNDS     =     1131621.0000       HEAD DEP BOUNDS     =           0.2141
      STREAM LEAKAGE     =   252996656.0000        STREAM LEAKAGE     =          46.3647
       LAKE  SEEPAGE     =           0.0000         LAKE  SEEPAGE     =           0.0000
        UZF RECHARGE     =   105142520.0000          UZF RECHARGE     =          33.4508
               GW ET     =           0.0000                 GW ET     =           0.0000
     SURFACE LEAKAGE     =           0.0000       SURFACE LEAKAGE     =           0.0000

                TOTAL IN =   367177568.0000                  TOTAL IN =          80.8221

          OUT:                                     OUT:
          ----                                     ----
             STORAGE     =   102396320.0000               STORAGE     =          31.1503
       CONSTANT HEAD     =           0.0000         CONSTANT HEAD     =           0.0000
               WELLS     =   105120000.0000                 WELLS     =          20.0000
     HEAD DEP BOUNDS     =     1509948.0000       HEAD DEP BOUNDS     =           0.2892
      STREAM LEAKAGE     =    93094584.0000        STREAM LEAKAGE     =          18.7541
       LAKE  SEEPAGE     =           0.0000         LAKE  SEEPAGE     =           0.0000
        UZF RECHARGE     =           0.0000          UZF RECHARGE     =           0.0000
               GW ET     =    65050344.0000                 GW ET     =          10.6178
     SURFACE LEAKAGE     =           0.0000       SURFACE LEAKAGE     =           0.0000

               TOTAL OUT =   367171200.0000                 TOTAL OUT =          80.8113

                IN - OUT =        6368.0000                  IN - OUT =       1.0796E-02

     PERCENT DISCREPANCY =           0.00         PERCENT DISCREPANCY =           0.01






         TIME SUMMARY AT END OF TIME STEP   15 IN STRESS PERIOD    2
                    SECONDS     MINUTES      HOURS       DAYS        YEARS
                    -----------------------------------------------------------
   TIME STEP LENGTH 1.75200E+05  2920.0      48.667      2.0278     5.55175E-03
 STRESS PERIOD TIME 2.62800E+06  43800.      730.00      30.417     8.32763E-02
         TOTAL TIME 5.25600E+06  87600.      1460.0      60.833     0.16655    
1
1
                            STRESS PERIOD NO.    3, LENGTH =   2628000.    
                            -----------------------------------------------

                              NUMBER OF TIME STEPS =    15

                               MULTIPLIER FOR DELT =     1.000

                            INITIAL TIME STEP SIZE =   175200.0    

 WELL NO.  LAYER   ROW   COL   STRESS RATE         
 --------------------------------------------------
      1      2      6      4      -1.000    
      2      2      6      5      -1.000    
      3      2      7      4      -1.000    
      4      2      7      5      -1.000    
      5      2      8      4      -1.000    
      6      2      8      5      -1.000    
      7      2      9      4      -1.000    
      8      2      9      5      -1.000    
      9      2     10      4      -1.000    
     10      2     10      5      -1.000    

     10 WELLS

 REUSING NON-PARAMETER GHB CELLS FROM LAST STRESS PERIOD

      2 GHB CELLS

 REUSING STREAM SEGMENT DATA FROM LAST STRESS PERIOD



            AREAL INFILTRATION RATE
 READING ON UNIT   19 WITH FORMAT: (10F4.0)            

            1           2           3           4           5           6           7           8           9          10
 ........................................................................................................................
   1   1.0000E-08  2.0000E-08   0.000       0.000       0.000       0.000       0.000       0.000       0.000       0.000    
   2   2.0000E-08  1.0000E-08  2.0000E-08   0.000       0.000      8.0000E-08  8.0000E-08  5.0000E-08   0.000       0.000    
   3    0.000      5.0000E-08  1.0000E-08  1.0000E-08  8.0000E-08  8.0000E-08  5.0000E-08  5.0000E-08   0.000       0.000    
   4   8.0000E-08  5.0000E-08  1.0000E-08  1.0000E-08  1.0000E-08  1.0000E-08  1.0000E-08  1.0000E-08  2.0000E-08   0.000    
   5   8.0000E-08  5.0000E-08  1.0000E-08  1.0000E-08  1.0000E-08  1.0000E-08  1.0000E-08  1.0000E-08  1.0000E-08  1.0000E-08
   6   8.0000E-08  5.0000E-08  5.0000E-08  2.0000E-08  2.0000E-08  1.0000E-08  1.0000E-08  1.0000E-08  1.0000E-08  5.0000E-08
   7   8.0000E-08  5.0000E-08  5.0000E-08  2.0000E-08  2.0000E-08  1.0000E-08  1.0000E-08  2.0000E-08  2.0000E-08   0.000    
   8    0.000      5.0000E-08  5.0000E-08  2.0000E-08  2.0000E-08  1.0000E-08  1.0000E-08  2.0000E-08  5.0000E-08   0.000    
   9    0.000      5.0000E-08  5.0000E-08  2.0000E-08  2.0000E-08  1.0000E-08  1.0000E-08  2.0000E-08  5.0000E-08   0.000    
  10    0.000      5.0000E-08  5.0000E-08  2.0000E-08  2.0000E-08  1.0000E-08  1.0000E-08  2.0000E-08  5.0000E-08  8.0000E-08
  11    0.000      1.0000E-08  1.0000E-08  1.0000E-08  1.0000E-08  1.0000E-08  1.0000E-08  2.0000E-08  5.0000E-08   0.000    
  12   1.0000E-08  1.0000E-08  1.0000E-08  1.0000E-08  1.0000E-08  1.0000E-08  1.0000E-08  1.0000E-08  2.0000E-08   0.000    
  13   1.0000E-08  1.0000E-08  2.0000E-08  2.0000E-08  2.0000E-08  2.0000E-08  2.0000E-08  1.0000E-08  1.0000E-08   0.000    
  14    0.000      2.0000E-08  5.0000E-08  5.0000E-08  5.0000E-08  5.0000E-08  5.0000E-08  2.0000E-08  1.0000E-08   0.000    
  15    0.000       0.000      8.0000E-08  8.0000E-08  8.0000E-08  8.0000E-08   0.000       0.000       0.000       0.000    

USING ET RATE FROM PREVIOUS STRESS PERIOD. CURRENT PERIOD IS:       3

 USING ET EXTINCTION DEPTH FROM PREVIOUS STRESS PERIOD. CURRENT PERIOD IS:       3

 USING EXTINCTION WATER CONTENT FROM PREVIOUS STRESS PERIOD. CURRENT PERIOD IS:       3




 If any subsequent steady-state stress periods, min. and max. stages for each lake will be read in Record 9a.




 REUSING LAKE CONFIGURATION DATA FROM LAST STRESS PERIOD


 LAKE       PRECIP     EVAP     RUNOFF   WITHDRAW   BOTTOM     AREA
----------------------------------------------------------------------
   1     0.000E+00 4.000E-08 0.000E+00  0.000E+00 1.074E+03 2.500E+07




         C               INTERFACE CONDUCTANCES BETWEEN LAKE AND AQUIFER CELLS
   L     O          (IF TYPE = 6, CONDUCTANCE (L^2/T) IS BETWEEN AQUIFER CELL AND OVERLYING LAKE CELL.)
   A     L  L  T    (IF TYPE = 1 TO 4, CONDUCTANCES ARE PER UNIT SATURATED THICKNESS (L/T).)
   Y  R  U  A  Y
   E  O  M  K  P                        LAKEBED      C O N D U C T A N C E S
   R  W  N  E  E     DELTA Y   DELTA X  LEAKANCE   LAKEBED   AQUIFER  COMBINED
 _______________________________________________________________________________
   1  4  4  1  2    5.00E+03  5.00E+03  5.00E-02  2.50E+02  6.00E-03  6.00E-03
   1  3  5  1  3    5.00E+03  5.00E+03  5.00E-02  2.50E+02  1.20E-03  1.20E-03
   2  4  5  1  6    5.00E+03  5.00E+03  5.00E-02  1.25E+06  9.42E+00  9.42E+00
   1  5  5  1  4    5.00E+03  5.00E+03  5.00E-02  2.50E+02  6.00E-03  6.00E-03
   1  4  6  1  1    5.00E+03  5.00E+03  5.00E-02  2.50E+02  6.00E-03  6.00E-03
 
      DEAD POOL STORAGE FOR LAKE    1 BELOW SEGMENT   10 IS EQUAL TO     0.1200000000E+09
 
      LAKE     INFLOWING STREAM SEGMENT
         1                  9

 MAXIMUM NUMBER OF STREAMS INFLOWING TO A LAKE IS    1

      LAKE     OUTFLOWING STREAM SEGMENT
         1                 10

 MAXIMUM NUMBER OF STREAMS OUTFLOWING FROM A LAKE IS    1

 
 SOLVING FOR HEAD 
                                                   Max.-Head-Change                         Max.-Flux-Residual
  Residual-Control   Outer-Iter.   Inner-Iter.     Column Row Layer    Maximum-Head-Change  Column Row Layer    Maximum-Flux-Residual          L2-NORM 
          0                 1           2            10   10     2       0.4717051916E-01       4   10    2         0.1192035011E+01      0.4881055271E+01
          0                 2           2             4   10     2      -0.1990194143E-02       4   10    2        -0.5654920263E-01      0.1771393008E+00
          0                 3           1             7   12     2       0.3609213376E-04       3   12    2         0.1059232205E-02      0.3332929740E-02

    ------------------------------------------------
       NWT REQUIRED            3 OUTER ITERATIONS 
       AND A TOTAL OF          5 INNER ITERATIONS.
    ------------------------------------------------

 OUTPUT CONTROL FOR STRESS PERIOD    3   TIME STEP    1
    PRINT BUDGET
    SAVE BUDGET

            WELLS   PERIOD    3   STEP   1
 WELL      1   LAYER   2   ROW     6   COL     4   RATE    -1.00000    
 WELL      2   LAYER   2   ROW     6   COL     5   RATE    -1.00000    
 WELL      3   LAYER   2   ROW     7   COL     4   RATE    -1.00000    
 WELL      4   LAYER   2   ROW     7   COL     5   RATE    -1.00000    
 WELL      5   LAYER   2   ROW     8   COL     4   RATE    -1.00000    
 WELL      6   LAYER   2   ROW     8   COL     5   RATE    -1.00000    
 WELL      7   LAYER   2   ROW     9   COL     4   RATE    -1.00000    
 WELL      8   LAYER   2   ROW     9   COL     5   RATE    -1.00000    
 WELL      9   LAYER   2   ROW    10   COL     4   RATE    -1.00000    
 WELL     10   LAYER   2   ROW    10   COL     5   RATE    -1.00000    

  HEAD DEP BOUNDS   PERIOD    3   STEP     1
 BOUNDARY      1   LAYER   2   ROW    13   COL     1   RATE   -0.289313    
 BOUNDARY      2   LAYER   2   ROW    14   COL     9   RATE    0.214090    



 STREAM LISTING     PERIOD      3   STEP        1

 LAYER ROW COL. STREAM  RCH.  FLOW INTO     FLOW TO   FLOW OUT OF   OVRLND.     DIRECT     STREAM       STREAM     STREAM     STREAM   STREAMBED  STREAMBED
                SEG.NO.  NO.  STRM. RCH.    AQUIFER    STRM. RCH.    RUNOFF     PRECIP       ET          HEAD       DEPTH      WIDTH   CONDCTNC.   GRADIENT

   2    1    1     1     1    2.5000E+01  1.9554E+00   2.3045E+01  0.000E+00  0.000E+00  0.000E+00  1.09421E+03  1.165E+00  1.287E+01  5.790E-01  1.126E+00
   2    2    2     1     2    2.3045E+01  3.5443E+00   1.9500E+01  0.000E+00  0.000E+00  0.000E+00  1.08918E+03  1.122E+00  1.228E+01  8.599E-01  1.374E+00
   2    3    3     1     3    1.9500E+01  2.7881E+00   1.6712E+01  0.000E+00  0.000E+00  0.000E+00  1.08349E+03  1.069E+00  1.142E+01  6.852E-01  1.356E+00
   2    3    4     1     4    1.6712E+01  2.3622E+00   1.4350E+01  0.000E+00  0.000E+00  0.000E+00  1.07843E+03  1.022E+00  1.058E+01  5.873E-01  1.341E+00
   2    4    5     2     1    4.3500E+00  2.6064E+00   1.7436E+00  0.000E+00  0.000E+00  0.000E+00  1.07228E+03  3.415E-01  1.200E+01  7.800E-01  1.114E+00
   2    5    6     2     2    1.7436E+00  1.7436E+00   0.0000E+00  0.000E+00  0.000E+00  0.000E+00  1.06656E+03  5.498E-02  1.200E+01  6.000E-01  1.018E+00
   2    6    6     2     3    0.0000E+00  0.0000E+00   0.0000E+00  0.000E+00  0.000E+00  0.000E+00  1.06179E+03  0.000E+00  1.200E+01  6.000E-01  1.000E+00
   2    7    6     2     4    0.0000E+00  0.0000E+00   0.0000E+00  0.000E+00  0.000E+00  0.000E+00  1.05708E+03  0.000E+00  1.200E+01  6.000E-01  1.000E+00
   2    8    6     2     5    0.0000E+00  0.0000E+00   0.0000E+00  0.000E+00  0.000E+00  0.000E+00  1.05236E+03  0.000E+00  1.200E+01  6.000E-01  1.000E+00
   2    3    5     3     1    1.0000E+01  2.8252E+00   7.1748E+00  0.000E+00  0.000E+00  0.000E+00  1.07555E+03  1.909E+00  9.636E+00  7.227E-01  1.955E+00
   2    3    6     3     2    7.1748E+00  2.4905E+00   4.6843E+00  0.000E+00  0.000E+00  0.000E+00  1.07264E+03  1.727E+00  8.909E+00  6.682E-01  1.864E+00
   2    3    7     3     3    4.6843E+00  1.9718E+00   2.7125E+00  0.000E+00  0.000E+00  0.000E+00  1.06987E+03  1.555E+00  8.218E+00  5.547E-01  1.777E+00
   2    4    8     3     4    2.7125E+00  2.2567E+00   4.5579E-01  0.000E+00  0.000E+00  0.000E+00  1.06682E+03  1.364E+00  7.455E+00  6.709E-01  1.682E+00
   2    5    8     3     5    4.5579E-01  4.5579E-01   0.0000E+00  0.000E+00  0.000E+00  0.000E+00  1.06362E+03  0.000E+00  6.655E+00  4.991E-01  1.582E+00
   2    6    8     3     6    0.0000E+00  0.0000E+00   0.0000E+00  0.000E+00  0.000E+00  0.000E+00  1.06055E+03  0.000E+00  6.145E+00  1.844E-01  1.000E+00
   2    5   10     4     1    1.0000E+01  9.0525E-01   9.0947E+00  0.000E+00  0.000E+00  0.000E+00  1.07835E+03  6.210E-01  1.000E+01  2.500E-01  1.207E+00
   2    5    9     4     2    9.0947E+00  1.7835E+00   7.3113E+00  0.000E+00  0.000E+00  0.000E+00  1.07148E+03  5.670E-01  1.000E+01  5.000E-01  1.189E+00
   2    6    8     4     3    7.3113E+00  1.2257E+00   6.0855E+00  0.000E+00  0.000E+00  0.000E+00  1.06368E+03  5.021E-01  1.000E+01  3.500E-01  1.167E+00
   2    6    8     5     1    6.0855E+00  1.4716E+00   4.6139E+00  0.000E+00  0.000E+00  0.000E+00  1.05854E+03  5.396E-01  1.039E+01  4.158E-01  1.180E+00
   2    7    7     5     2    4.6139E+00  1.4897E+00   3.1242E+00  0.000E+00  0.000E+00  0.000E+00  1.05398E+03  4.817E-01  8.557E+00  4.279E-01  1.161E+00
   2    8    7     5     3    3.1242E+00  8.2855E-01   2.2957E+00  0.000E+00  0.000E+00  0.000E+00  1.04968E+03  4.253E-01  6.911E+00  2.419E-01  1.142E+00
   2    8    6     5     4    2.2957E+00  4.9455E-01   1.8011E+00  0.000E+00  0.000E+00  0.000E+00  1.04664E+03  3.856E-01  5.843E+00  1.461E-01  1.129E+00
   2    9    6     6     1    1.8011E+00  1.8011E+00   0.0000E+00  0.000E+00  0.000E+00  0.000E+00  1.04278E+03  5.669E-02  1.200E+01  6.000E-01  1.019E+00
   2   10    7     6     2    0.0000E+00  0.0000E+00   0.0000E+00  0.000E+00  0.000E+00  0.000E+00  1.03818E+03  0.000E+00  1.200E+01  6.000E-01  1.000E+00
   2   11    7     6     3    0.0000E+00  0.0000E+00   0.0000E+00  0.000E+00  0.000E+00  0.000E+00  1.03364E+03  0.000E+00  1.200E+01  6.000E-01  1.000E+00
   2   12    7     6     4    0.0000E+00  0.0000E+00   0.0000E+00  0.000E+00  0.000E+00  0.000E+00  1.02909E+03  0.000E+00  1.200E+01  6.000E-01  5.512E-01
   2   13    7     6     5    0.0000E+00 -7.3801E-01   7.3801E-01  0.000E+00  0.000E+00  0.000E+00  1.02601E+03  9.732E-02  1.200E+01  2.400E-01 -1.025E+00
   2   14    9     7     1    1.5000E+02  2.7872E+00   1.4721E+02  0.000E+00  0.000E+00  0.000E+00  1.03986E+03  2.284E+00  5.528E+01  5.591E+00  1.662E-01
   2   13    8     7     2    1.4721E+02  3.8963E+00   1.4332E+02  0.000E+00  0.000E+00  0.000E+00  1.03477E+03  2.266E+00  5.520E+01  6.141E+00  2.115E-01
   2   13    7     7     3    1.4332E+02  3.2580E+00   1.4006E+02  0.000E+00  0.000E+00  0.000E+00  1.02967E+03  2.247E+00  5.511E+01  5.573E+00  1.949E-01
   2   13    6     8     1    1.4080E+02  1.3706E+00   1.3943E+02  0.000E+00  0.000E+00  0.000E+00  1.02462E+03  2.746E+00  3.981E+01  4.057E+00  1.126E-01
   2   13    5     8     2    1.3943E+02 -1.8499E+00   1.4128E+02  0.000E+00  0.000E+00  0.000E+00  1.01837E+03  2.747E+00  3.984E+01  4.060E+00 -1.519E-01
   2   13    4     8     3    1.4128E+02 -4.8926E+00   1.4617E+02  0.000E+00  0.000E+00  0.000E+00  1.01215E+03  2.772E+00  4.019E+01  4.096E+00 -3.982E-01
   2   13    3     8     4    1.4617E+02 -5.6542E+00   1.5182E+02  0.000E+00  0.000E+00  0.000E+00  1.00593E+03  2.810E+00  4.074E+01  4.152E+00 -4.540E-01
   2   13    2     8     5    1.5182E+02 -3.4654E+00   1.5529E+02  0.000E+00  0.000E+00  0.000E+00  9.99717E+02  2.842E+00  4.120E+01  4.199E+00 -2.751E-01
   2   13    1     8     6    1.5529E+02 -2.2252E+00   1.5751E+02  0.000E+00  0.000E+00  0.000E+00  9.94736E+02  2.861E+00  4.149E+01  2.537E+00 -2.924E-01
   2    4    5     9     1    0.0000E+00  0.0000E+00   0.0000E+00  0.000E+00  0.000E+00  0.000E+00  1.06000E+03  0.000E+00  2.000E+01  2.000E-03  1.000E+00
   2    4    5    10     1    0.0000E+00  0.0000E+00   0.0000E+00  0.000E+00  0.000E+00  0.000E+00  1.08000E+03  0.000E+00  2.000E+01  2.000E-03  1.000E+00



 ..........LAKE  1 IS DRY..........

     SECTIONS OF THE LAKE BOTTOM HAVE BECOME DRY.  THE DRYSECTIONS
     LIE ABOVE THE FOLLOWING  1 AQUIFER CELLS (LAYER,ROW,COLUMN):
     (  2,  4,  5)  (

 PERIOD     3     TIME STEP     1     TIME STEP LENGTH  1.7520E+05
 PERIOD TIME  1.7520E+05     TOTAL SIMULATION TIME  5.4312E+06


                 HYDROLOGIC BUDGET SUMMARIES FOR SIMULATED LAKES
     (ALL FLUID FLUXES ARE VOLUMES ADDED TO THE LAKE DURING PRESENT TIME STEP)
     ----------------------------------------------------------------------------------------
 LAKE    STAGE         VOLUME     VOL. CHANGE      PRECIP     EVAPORATION    SPECIFIED RUNOFF     COMPUTED RUNOFF    TOTAL RUNOFF
   1  1.074500E+03  0.000000E+00  0.000000E+00  0.000000E+00  0.000000E+00   0.000000E+00          0.000000E+00      0.000000E+00

            GROUND WATER            SURFACE WATER        WATER          UZF INFIL.
 LAKE    INFLOW     OUTFLOW      INFLOW     OUTFLOW       USE        FROM LAKE
   1  0.0000E+00  0.0000E+00  0.0000E+00  0.0000E+00  0.0000E+00       0.0000E+00

      CONNECTED LAKE   TIME-STEP         STAGE-CHANGE          PERCENT
 LAKE    INFLUX      SURFACE AREA   TIME STEP  CUMULATIVE    DISCREPANCY
   1   0.0000E+00     0.0000E+00   0.0000E+00  0.0000E+00       0.000
 --------------------------------------------------------------------------------



            CUMULATIVE HYDROLOGIC BUDGET SUMMARIES FOR SIMULATED LAKES
     (ALL FLUID FLUXES ARE SUMS OF VOLUMES ADDED TO THE LAKE SINCE INITIAL TIME)
     ---------------------------------------------------------------------------
 LAKE       PRECIP       EVAP     SPECIFIED RUNOFF   COMPUTED RUNOFF   TOTAL RUNOFF
   1     0.0000E+00  0.0000E+00       0.0000E+00       0.0000E+00       0.0000E+00

            GROUND WATER            SURFACE WATER       UZF INFIL.
 LAKE    INFLOW     OUTFLOW      INFLOW     OUTFLOW     FROM LAKE
   1  0.0000E+00  0.0000E+00  0.0000E+00  0.0000E+00    0.0000E+00

         WATER    CONNECTED LAKE   CHANGE       PERCENT
 LAKE     USE         INFLUX       IN VOL.    DISCREPANCY
   1   0.0000E+00   0.0000E+00   0.0000E+00      0.000
 --------------------------------------------------------------------------------

 UBDSV3 SAVING "           GW ET" ON UNIT  61 AT TIME STEP 1, STRESS PERIOD 3
 UBDSV3 SAVING "    UZF RECHARGE" ON UNIT  61 AT TIME STEP 1, STRESS PERIOD 3
 UBDSV3 SAVING " SURFACE LEAKAGE" ON UNIT  61 AT TIME STEP 1, STRESS PERIOD 3
 UBDSV3 SAVING "       HORT+DUNN" ON UNIT  61 AT TIME STEP 1, STRESS PERIOD 3
 UBDSV3 SAVING "  STORAGE CHANGE" ON UNIT  61 AT TIME STEP 1, STRESS PERIOD 3


UNSATURATED ZONE PACKAGE VOLUMETRIC BUDGET FOR  TIME STEP     1 STRESS PERIOD    3
  ------------------------------------------------------------------------------



     CUMULATIVE VOLUMES      L**3       RATES FOR THIS TIME STEP      L**3/T
     ------------------                 ------------------------

           IN:                                      IN:
           ---                                      ---
        INFILTRATION =   194677860.0000          INFILTRATION =          84.5000

          OUT:                                     OUT:
          ----                                     ----
              UZF ET =   364613474.3057                UZF ET =         126.8465
        UZF RECHARGE =   111020713.6092          UZF RECHARGE =          33.5513

            IN - OUT =  -280956327.9149              IN - OUT =         -75.8978

          STORAGE:                                 STORAGE:
          --------                                 --------
      STORAGE CHANGE =  -280899258.6210        STORAGE CHANGE =         -75.8779

 PERCENT DISCREPANCY IS DIFFERENCE BETWEEN IN-OUT MINUS CHANGE IN STORAGE
 DIVIDED BY THE AVERAGE OF IN AND OUT TIMES 100

 PERCENT DISCREPANCY =          -0.00     PERCENT DISCREPANCY =          -0.01






1
  VOLUMETRIC BUDGET FOR ENTIRE MODEL AT END OF TIME STEP    1, STRESS PERIOD   3
  ------------------------------------------------------------------------------

     CUMULATIVE VOLUMES      L**3       RATES FOR THIS TIME STEP      L**3/T
     ------------------                 ------------------------

           IN:                                      IN:
           ---                                      ---
             STORAGE     =     7987972.5000               STORAGE     =           0.4635
       CONSTANT HEAD     =           0.0000         CONSTANT HEAD     =           0.0000
               WELLS     =           0.0000                 WELLS     =           0.0000
     HEAD DEP BOUNDS     =     1169129.6250       HEAD DEP BOUNDS     =           0.2141
      STREAM LEAKAGE     =   261110528.0000        STREAM LEAKAGE     =          46.3120
       LAKE  SEEPAGE     =           0.0000         LAKE  SEEPAGE     =           0.0000
        UZF RECHARGE     =   111020712.0000          UZF RECHARGE     =          33.5513
               GW ET     =           0.0000                 GW ET     =           0.0000
     SURFACE LEAKAGE     =           0.0000       SURFACE LEAKAGE     =           0.0000

                TOTAL IN =   381288320.0000                  TOTAL IN =          80.5409

          OUT:                                     OUT:
          ----                                     ----
             STORAGE     =   109532288.0000               STORAGE     =          40.7304
       CONSTANT HEAD     =           0.0000         CONSTANT HEAD     =           0.0000
               WELLS     =   106872000.0000                 WELLS     =          10.0000
     HEAD DEP BOUNDS     =     1560635.6250       HEAD DEP BOUNDS     =           0.2893
      STREAM LEAKAGE     =    96392760.0000        STREAM LEAKAGE     =          18.8252
       LAKE  SEEPAGE     =           0.0000         LAKE  SEEPAGE     =           0.0000
        UZF RECHARGE     =           0.0000          UZF RECHARGE     =           0.0000
               GW ET     =    66924288.0000                 GW ET     =          10.6960
     SURFACE LEAKAGE     =           0.0000       SURFACE LEAKAGE     =           0.0000

               TOTAL OUT =   381281984.0000                 TOTAL OUT =          80.5409

                IN - OUT =        6336.0000                  IN - OUT =      -2.2888E-05

     PERCENT DISCREPANCY =           0.00         PERCENT DISCREPANCY =          -0.00






         TIME SUMMARY AT END OF TIME STEP    1 IN STRESS PERIOD    3
                    SECONDS     MINUTES      HOURS       DAYS        YEARS
                    -----------------------------------------------------------
   TIME STEP LENGTH 1.75200E+05  2920.0      48.667      2.0278     5.55175E-03
 STRESS PERIOD TIME 1.75200E+05  2920.0      48.667      2.0278     5.55175E-03
         TOTAL TIME 5.43120E+06  90520.      1508.7      62.861     0.17210    
1
 
 SOLVING FOR HEAD 
                                                   Max.-Head-Change                         Max.-Flux-Residual
  Residual-Control   Outer-Iter.   Inner-Iter.     Column Row Layer    Maximum-Head-Change  Column Row Layer    Maximum-Flux-Residual          L2-NORM 
          0                 1           2            10   10     2       0.4716614741E-01       4    9    2         0.1163240302E+01      0.4730209255E+01
          0                 2           2             4    9     2      -0.1943156606E-02       4   10    2        -0.5398798238E-01      0.1707401167E+00
          0                 3           1             7   11     2       0.3871172552E-04       3   12    2         0.1137833309E-02      0.3469070597E-02

    ------------------------------------------------
       NWT REQUIRED            3 OUTER ITERATIONS 
       AND A TOTAL OF          5 INNER ITERATIONS.
    ------------------------------------------------

 NO OUTPUT CONTROL FOR STRESS PERIOD    3   TIME STEP    2
 ..........LAKE  1 IS DRY..........
 
 SOLVING FOR HEAD 
                                                   Max.-Head-Change                         Max.-Flux-Residual
  Residual-Control   Outer-Iter.   Inner-Iter.     Column Row Layer    Maximum-Head-Change  Column Row Layer    Maximum-Flux-Residual          L2-NORM 
          0                 1           2            10   10     2       0.4716078579E-01       4    9    2         0.1146545590E+01      0.4568628501E+01
          0                 2           2             4    9     2      -0.1916463400E-02       4    9    2        -0.5271710721E-01      0.1585059779E+00
          0                 3           1             3   12     2       0.2811833539E-04       3   12    2         0.8443205256E-03      0.2224778982E-02

    ------------------------------------------------
       NWT REQUIRED            3 OUTER ITERATIONS 
       AND A TOTAL OF          5 INNER ITERATIONS.
    ------------------------------------------------

 NO OUTPUT CONTROL FOR STRESS PERIOD    3   TIME STEP    3
 ..........LAKE  1 IS DRY..........
 
 SOLVING FOR HEAD 
                                                   Max.-Head-Change                         Max.-Flux-Residual
  Residual-Control   Outer-Iter.   Inner-Iter.     Column Row Layer    Maximum-Head-Change  Column Row Layer    Maximum-Flux-Residual          L2-NORM 
          0                 1           2            10   10     2       0.4715443491E-01       4    9    2         0.1127577695E+01      0.4548748662E+01
          0                 2           2             4    9     2      -0.1884911103E-02       4    9    2        -0.5194292977E-01      0.1614087056E+00
          0                 3           1             2    2     2       0.2737935013E-04       3   12    2         0.7983384776E-03      0.2318783656E-02

    ------------------------------------------------
       NWT REQUIRED            3 OUTER ITERATIONS 
       AND A TOTAL OF          5 INNER ITERATIONS.
    ------------------------------------------------

 NO OUTPUT CONTROL FOR STRESS PERIOD    3   TIME STEP    4
 ..........LAKE  1 IS DRY..........
 
 SOLVING FOR HEAD 
                                                   Max.-Head-Change                         Max.-Flux-Residual
  Residual-Control   Outer-Iter.   Inner-Iter.     Column Row Layer    Maximum-Head-Change  Column Row Layer    Maximum-Flux-Residual          L2-NORM 
          0                 1           2            10   10     2       0.4714701452E-01       4    9    2         0.1107062430E+01      0.4441267091E+01
          0                 2           2             4    9     2      -0.1851960327E-02       4    9    2        -0.5109517152E-01      0.1581105982E+00
          0                 3           1             2    2     2       0.2960515504E-04       2    2    2         0.8618850567E-03      0.2280740344E-02

    ------------------------------------------------
       NWT REQUIRED            3 OUTER ITERATIONS 
       AND A TOTAL OF          5 INNER ITERATIONS.
    ------------------------------------------------

 OUTPUT CONTROL FOR STRESS PERIOD    3   TIME STEP    5
    PRINT BUDGET
    SAVE BUDGET

            WELLS   PERIOD    3   STEP   5
 WELL      1   LAYER   2   ROW     6   COL     4   RATE    -1.00000    
 WELL      2   LAYER   2   ROW     6   COL     5   RATE    -1.00000    
 WELL      3   LAYER   2   ROW     7   COL     4   RATE    -1.00000    
 WELL      4   LAYER   2   ROW     7   COL     5   RATE    -1.00000    
 WELL      5   LAYER   2   ROW     8   COL     4   RATE    -1.00000    
 WELL      6   LAYER   2   ROW     8   COL     5   RATE    -1.00000    
 WELL      7   LAYER   2   ROW     9   COL     4   RATE    -1.00000    
 WELL      8   LAYER   2   ROW     9   COL     5   RATE    -1.00000    
 WELL      9   LAYER   2   ROW    10   COL     4   RATE    -1.00000    
 WELL     10   LAYER   2   ROW    10   COL     5   RATE    -1.00000    

  HEAD DEP BOUNDS   PERIOD    3   STEP     5
 BOUNDARY      1   LAYER   2   ROW    13   COL     1   RATE   -0.289850    
 BOUNDARY      2   LAYER   2   ROW    14   COL     9   RATE    0.214364    



 STREAM LISTING     PERIOD      3   STEP        5

 LAYER ROW COL. STREAM  RCH.  FLOW INTO     FLOW TO   FLOW OUT OF   OVRLND.     DIRECT     STREAM       STREAM     STREAM     STREAM   STREAMBED  STREAMBED
                SEG.NO.  NO.  STRM. RCH.    AQUIFER    STRM. RCH.    RUNOFF     PRECIP       ET          HEAD       DEPTH      WIDTH   CONDCTNC.   GRADIENT

   2    1    1     1     1    2.7000E+01  2.0322E+00   2.4968E+01  0.000E+00  0.000E+00  0.000E+00  1.09424E+03  1.195E+00  1.326E+01  5.965E-01  1.136E+00
   2    2    2     1     2    2.4968E+01  3.6852E+00   2.1283E+01  0.000E+00  0.000E+00  0.000E+00  1.08921E+03  1.152E+00  1.268E+01  8.877E-01  1.384E+00
   2    3    3     1     3    2.1283E+01  2.9362E+00   1.8346E+01  0.000E+00  0.000E+00  0.000E+00  1.08352E+03  1.097E+00  1.194E+01  7.167E-01  1.366E+00
   2    3    4     1     4    1.8346E+01  2.4957E+00   1.5851E+01  0.000E+00  0.000E+00  0.000E+00  1.07846E+03  1.051E+00  1.110E+01  6.160E-01  1.350E+00
   2    4    5     2     1    5.8507E+00  2.6772E+00   3.1735E+00  0.000E+00  0.000E+00  0.000E+00  1.07237E+03  4.323E-01  1.200E+01  7.800E-01  1.144E+00
   2    5    6     2     2    3.1735E+00  1.9681E+00   1.2055E+00  0.000E+00  0.000E+00  0.000E+00  1.06679E+03  2.801E-01  1.200E+01  6.000E-01  1.093E+00
   2    6    6     2     3    1.2055E+00  1.2055E+00   0.0000E+00  0.000E+00  0.000E+00  0.000E+00  1.06184E+03  4.406E-02  1.200E+01  6.000E-01  1.015E+00
   2    7    6     2     4    0.0000E+00  0.0000E+00   0.0000E+00  0.000E+00  0.000E+00  0.000E+00  1.05708E+03  0.000E+00  1.200E+01  6.000E-01  1.000E+00
   2    8    6     2     5    0.0000E+00  0.0000E+00   0.0000E+00  0.000E+00  0.000E+00  0.000E+00  1.05236E+03  0.000E+00  1.200E+01  6.000E-01  1.000E+00
   2    3    5     3     1    1.0000E+01  2.8252E+00   7.1748E+00  0.000E+00  0.000E+00  0.000E+00  1.07555E+03  1.909E+00  9.636E+00  7.227E-01  1.955E+00
   2    3    6     3     2    7.1748E+00  2.4905E+00   4.6843E+00  0.000E+00  0.000E+00  0.000E+00  1.07264E+03  1.727E+00  8.909E+00  6.682E-01  1.864E+00
   2    3    7     3     3    4.6843E+00  1.9718E+00   2.7125E+00  0.000E+00  0.000E+00  0.000E+00  1.06987E+03  1.555E+00  8.218E+00  5.547E-01  1.777E+00
   2    4    8     3     4    2.7125E+00  2.2567E+00   4.5579E-01  0.000E+00  0.000E+00  0.000E+00  1.06682E+03  1.364E+00  7.455E+00  6.709E-01  1.682E+00
   2    5    8     3     5    4.5579E-01  4.5579E-01   0.0000E+00  0.000E+00  0.000E+00  0.000E+00  1.06362E+03  0.000E+00  6.655E+00  4.991E-01  1.582E+00
   2    6    8     3     6    0.0000E+00  0.0000E+00   0.0000E+00  0.000E+00  0.000E+00  0.000E+00  1.06055E+03  0.000E+00  6.145E+00  1.844E-01  1.000E+00
   2    5   10     4     1    1.0000E+01  9.0525E-01   9.0947E+00  0.000E+00  0.000E+00  0.000E+00  1.07835E+03  6.210E-01  1.000E+01  2.500E-01  1.207E+00
   2    5    9     4     2    9.0947E+00  1.7835E+00   7.3113E+00  0.000E+00  0.000E+00  0.000E+00  1.07148E+03  5.670E-01  1.000E+01  5.000E-01  1.189E+00
   2    6    8     4     3    7.3113E+00  1.2257E+00   6.0855E+00  0.000E+00  0.000E+00  0.000E+00  1.06368E+03  5.021E-01  1.000E+01  3.500E-01  1.167E+00
   2    6    8     5     1    6.0855E+00  1.4716E+00   4.6139E+00  0.000E+00  0.000E+00  0.000E+00  1.05854E+03  5.396E-01  1.039E+01  4.158E-01  1.180E+00
   2    7    7     5     2    4.6139E+00  1.4897E+00   3.1242E+00  0.000E+00  0.000E+00  0.000E+00  1.05398E+03  4.817E-01  8.557E+00  4.279E-01  1.161E+00
   2    8    7     5     3    3.1242E+00  8.2855E-01   2.2957E+00  0.000E+00  0.000E+00  0.000E+00  1.04968E+03  4.253E-01  6.911E+00  2.419E-01  1.142E+00
   2    8    6     5     4    2.2957E+00  4.9455E-01   1.8011E+00  0.000E+00  0.000E+00  0.000E+00  1.04664E+03  3.856E-01  5.843E+00  1.461E-01  1.129E+00
   2    9    6     6     1    1.8011E+00  1.8011E+00   0.0000E+00  0.000E+00  0.000E+00  0.000E+00  1.04278E+03  5.669E-02  1.200E+01  6.000E-01  1.019E+00
   2   10    7     6     2    0.0000E+00  0.0000E+00   0.0000E+00  0.000E+00  0.000E+00  0.000E+00  1.03818E+03  0.000E+00  1.200E+01  6.000E-01  1.000E+00
   2   11    7     6     3    0.0000E+00  0.0000E+00   0.0000E+00  0.000E+00  0.000E+00  0.000E+00  1.03364E+03  0.000E+00  1.200E+01  6.000E-01  1.000E+00
   2   12    7     6     4    0.0000E+00  0.0000E+00   0.0000E+00  0.000E+00  0.000E+00  0.000E+00  1.02909E+03  0.000E+00  1.200E+01  6.000E-01  5.468E-01
   2   13    7     6     5    0.0000E+00 -7.4050E-01   7.4050E-01  0.000E+00  0.000E+00  0.000E+00  1.02601E+03  9.751E-02  1.200E+01  2.400E-01 -1.028E+00
   2   14    9     7     1    1.5000E+02  2.8268E+00   1.4717E+02  0.000E+00  0.000E+00  0.000E+00  1.03986E+03  2.284E+00  5.528E+01  5.591E+00  1.685E-01
   2   13    8     7     2    1.4717E+02  3.9139E+00   1.4326E+02  0.000E+00  0.000E+00  0.000E+00  1.03477E+03  2.266E+00  5.520E+01  6.140E+00  2.125E-01
   2   13    7     7     3    1.4326E+02  3.1982E+00   1.4006E+02  0.000E+00  0.000E+00  0.000E+00  1.02967E+03  2.247E+00  5.511E+01  5.573E+00  1.913E-01
   2   13    6     8     1    1.4080E+02  1.3054E+00   1.3950E+02  0.000E+00  0.000E+00  0.000E+00  1.02462E+03  2.746E+00  3.982E+01  4.057E+00  1.072E-01
   2   13    5     8     2    1.3950E+02 -1.9299E+00   1.4143E+02  0.000E+00  0.000E+00  0.000E+00  1.01837E+03  2.748E+00  3.985E+01  4.061E+00 -1.584E-01
   2   13    4     8     3    1.4143E+02 -4.9687E+00   1.4639E+02  0.000E+00  0.000E+00  0.000E+00  1.01215E+03  2.773E+00  4.021E+01  4.098E+00 -4.042E-01
   2   13    3     8     4    1.4639E+02 -5.7282E+00   1.5212E+02  0.000E+00  0.000E+00  0.000E+00  1.00594E+03  2.812E+00  4.077E+01  4.154E+00 -4.596E-01
   2   13    2     8     5    1.5212E+02 -3.4701E+00   1.5559E+02  0.000E+00  0.000E+00  0.000E+00  9.99719E+02  2.844E+00  4.123E+01  4.202E+00 -2.753E-01
   2   13    1     8     6    1.5559E+02 -2.2572E+00   1.5785E+02  0.000E+00  0.000E+00  0.000E+00  9.94739E+02  2.864E+00  4.152E+01  2.539E+00 -2.964E-01
   2    4    5     9     1    0.0000E+00  0.0000E+00   0.0000E+00  0.000E+00  0.000E+00  0.000E+00  1.06000E+03  0.000E+00  2.000E+01  2.000E-03  1.000E+00
   2    4    5    10     1    0.0000E+00  0.0000E+00   0.0000E+00  0.000E+00  0.000E+00  0.000E+00  1.08000E+03  0.000E+00  2.000E+01  2.000E-03  1.000E+00



 ..........LAKE  1 IS DRY..........

     SECTIONS OF THE LAKE BOTTOM HAVE BECOME DRY.  THE DRYSECTIONS
     LIE ABOVE THE FOLLOWING  1 AQUIFER CELLS (LAYER,ROW,COLUMN):
     (  2,  4,  5)  (

 PERIOD     3     TIME STEP     5     TIME STEP LENGTH  1.7520E+05
 PERIOD TIME  8.7600E+05     TOTAL SIMULATION TIME  6.1320E+06


                 HYDROLOGIC BUDGET SUMMARIES FOR SIMULATED LAKES
     (ALL FLUID FLUXES ARE VOLUMES ADDED TO THE LAKE DURING PRESENT TIME STEP)
     ----------------------------------------------------------------------------------------
 LAKE    STAGE         VOLUME     VOL. CHANGE      PRECIP     EVAPORATION    SPECIFIED RUNOFF     COMPUTED RUNOFF    TOTAL RUNOFF
   1  1.074500E+03  0.000000E+00  0.000000E+00  0.000000E+00  0.000000E+00   0.000000E+00          0.000000E+00      0.000000E+00

            GROUND WATER            SURFACE WATER        WATER          UZF INFIL.
 LAKE    INFLOW     OUTFLOW      INFLOW     OUTFLOW       USE        FROM LAKE
   1  0.0000E+00  0.0000E+00  0.0000E+00  0.0000E+00  0.0000E+00       0.0000E+00

      CONNECTED LAKE   TIME-STEP         STAGE-CHANGE          PERCENT
 LAKE    INFLUX      SURFACE AREA   TIME STEP  CUMULATIVE    DISCREPANCY
   1   0.0000E+00     0.0000E+00   0.0000E+00  0.0000E+00       0.000
 --------------------------------------------------------------------------------



            CUMULATIVE HYDROLOGIC BUDGET SUMMARIES FOR SIMULATED LAKES
     (ALL FLUID FLUXES ARE SUMS OF VOLUMES ADDED TO THE LAKE SINCE INITIAL TIME)
     ---------------------------------------------------------------------------
 LAKE       PRECIP       EVAP     SPECIFIED RUNOFF   COMPUTED RUNOFF   TOTAL RUNOFF
   1     0.0000E+00  0.0000E+00       0.0000E+00       0.0000E+00       0.0000E+00

            GROUND WATER            SURFACE WATER       UZF INFIL.
 LAKE    INFLOW     OUTFLOW      INFLOW     OUTFLOW     FROM LAKE
   1  0.0000E+00  0.0000E+00  0.0000E+00  0.0000E+00    0.0000E+00

         WATER    CONNECTED LAKE   CHANGE       PERCENT
 LAKE     USE         INFLUX       IN VOL.    DISCREPANCY
   1   0.0000E+00   0.0000E+00   0.0000E+00      0.000
 --------------------------------------------------------------------------------

 UBDSV3 SAVING "           GW ET" ON UNIT  61 AT TIME STEP 5, STRESS PERIOD 3
 UBDSV3 SAVING "    UZF RECHARGE" ON UNIT  61 AT TIME STEP 5, STRESS PERIOD 3
 UBDSV3 SAVING " SURFACE LEAKAGE" ON UNIT  61 AT TIME STEP 5, STRESS PERIOD 3
 UBDSV3 SAVING "       HORT+DUNN" ON UNIT  61 AT TIME STEP 5, STRESS PERIOD 3
 UBDSV3 SAVING "  STORAGE CHANGE" ON UNIT  61 AT TIME STEP 5, STRESS PERIOD 3


UNSATURATED ZONE PACKAGE VOLUMETRIC BUDGET FOR  TIME STEP     5 STRESS PERIOD    3
  ------------------------------------------------------------------------------



     CUMULATIVE VOLUMES      L**3       RATES FOR THIS TIME STEP      L**3/T
     ------------------                 ------------------------

           IN:                                      IN:
           ---                                      ---
        INFILTRATION =   253895460.0000          INFILTRATION =          84.5000

          OUT:                                     OUT:
          ----                                     ----
              UZF ET =   417364880.4788                UZF ET =          56.7872
        UZF RECHARGE =   133088498.4627          UZF RECHARGE =          30.2159

            IN - OUT =  -296557918.9415              IN - OUT =          -2.5031

          STORAGE:                                 STORAGE:
          --------                                 --------
      STORAGE CHANGE =  -296492050.0976        STORAGE CHANGE =          -2.4928

 PERCENT DISCREPANCY IS DIFFERENCE BETWEEN IN-OUT MINUS CHANGE IN STORAGE
 DIVIDED BY THE AVERAGE OF IN AND OUT TIMES 100

 PERCENT DISCREPANCY =          -0.00     PERCENT DISCREPANCY =          -0.01






1
  VOLUMETRIC BUDGET FOR ENTIRE MODEL AT END OF TIME STEP    5, STRESS PERIOD   3
  ------------------------------------------------------------------------------

     CUMULATIVE VOLUMES      L**3       RATES FOR THIS TIME STEP      L**3/T
     ------------------                 ------------------------

           IN:                                      IN:
           ---                                      ---
             STORAGE     =     8227660.0000               STORAGE     =           0.2189
       CONSTANT HEAD     =           0.0000         CONSTANT HEAD     =           0.0000
               WELLS     =           0.0000                 WELLS     =           0.0000
     HEAD DEP BOUNDS     =     1319255.3750       HEAD DEP BOUNDS     =           0.2144
      STREAM LEAKAGE     =   294191392.0000        STREAM LEAKAGE     =          48.2444
       LAKE  SEEPAGE     =           0.0000         LAKE  SEEPAGE     =           0.0000
        UZF RECHARGE     =   133088496.0000          UZF RECHARGE     =          30.2159
               GW ET     =           0.0000                 GW ET     =           0.0000
     SURFACE LEAKAGE     =           0.0000       SURFACE LEAKAGE     =           0.0000

                TOTAL IN =   436826816.0000                  TOTAL IN =          78.8935

          OUT:                                     OUT:
          ----                                     ----
             STORAGE     =   135933984.0000               STORAGE     =          36.6653
       CONSTANT HEAD     =           0.0000         CONSTANT HEAD     =           0.0000
               WELLS     =   113880000.0000                 WELLS     =          10.0000
     HEAD DEP BOUNDS     =     1763611.1250       HEAD DEP BOUNDS     =           0.2899
      STREAM LEAKAGE     =   109711032.0000        STREAM LEAKAGE     =          19.0945
       LAKE  SEEPAGE     =           0.0000         LAKE  SEEPAGE     =           0.0000
        UZF RECHARGE     =           0.0000          UZF RECHARGE     =           0.0000
               GW ET     =    75531784.0000                 GW ET     =          12.8438
     SURFACE LEAKAGE     =           0.0000       SURFACE LEAKAGE     =           0.0000

               TOTAL OUT =   436820416.0000                 TOTAL OUT =          78.8934

                IN - OUT =        6400.0000                  IN - OUT =       9.9182E-05

     PERCENT DISCREPANCY =           0.00         PERCENT DISCREPANCY =           0.00






         TIME SUMMARY AT END OF TIME STEP    5 IN STRESS PERIOD    3
                    SECONDS     MINUTES      HOURS       DAYS        YEARS
                    -----------------------------------------------------------
   TIME STEP LENGTH 1.75200E+05  2920.0      48.667      2.0278     5.55175E-03
 STRESS PERIOD TIME 8.76000E+05  14600.      243.33      10.139     2.77588E-02
         TOTAL TIME 6.13200E+06 1.02200E+05  1703.3      70.972     0.19431    
1
 
 SOLVING FOR HEAD 
                                                   Max.-Head-Change                         Max.-Flux-Residual
  Residual-Control   Outer-Iter.   Inner-Iter.     Column Row Layer    Maximum-Head-Change  Column Row Layer    Maximum-Flux-Residual          L2-NORM 
          0                 1           2            10   10     2       0.4713845765E-01       4    9    2         0.1085033013E+01      0.4345182781E+01
          0                 2           2             4    9     2      -0.1814948833E-02       4    9    2        -0.5012887251E-01      0.1537359581E+00
          0                 3           1             2    2     2       0.2881827146E-04       2    2    2         0.8388612689E-03      0.2240262463E-02

    ------------------------------------------------
       NWT REQUIRED            3 OUTER ITERATIONS 
       AND A TOTAL OF          5 INNER ITERATIONS.
    ------------------------------------------------

 NO OUTPUT CONTROL FOR STRESS PERIOD    3   TIME STEP    6
 ..........LAKE  1 IS DRY..........
 
 SOLVING FOR HEAD 
                                                   Max.-Head-Change                         Max.-Flux-Residual
  Residual-Control   Outer-Iter.   Inner-Iter.     Column Row Layer    Maximum-Head-Change  Column Row Layer    Maximum-Flux-Residual          L2-NORM 
          0                 1           2             6    3     2       0.5732843079E-01       4    9    2         0.1062488033E+01      0.4199557184E+01
          0                 2           2             4    9     2      -0.1778472226E-02       4    9    2        -0.4915599507E-01      0.1447064162E+00
          0                 3           1             3   12     2       0.2566552712E-04       3   12    2         0.7647290622E-03      0.2089232516E-02

    ------------------------------------------------
       NWT REQUIRED            3 OUTER ITERATIONS 
       AND A TOTAL OF          5 INNER ITERATIONS.
    ------------------------------------------------

 NO OUTPUT CONTROL FOR STRESS PERIOD    3   TIME STEP    7
 ..........LAKE  1 IS DRY..........
 
 SOLVING FOR HEAD 
                                                   Max.-Head-Change                         Max.-Flux-Residual
  Residual-Control   Outer-Iter.   Inner-Iter.     Column Row Layer    Maximum-Head-Change  Column Row Layer    Maximum-Flux-Residual          L2-NORM 
          0                 1           2             6    3     2       0.5584939366E-01       4    9    2         0.1039078608E+01      0.4165311581E+01
          0                 2           2             4    9     2      -0.1739142921E-02       4    9    2        -0.4809846441E-01      0.1470646447E+00
          0                 3           1             3   12     2       0.2519865634E-04       6   11    2         0.7600400081E-03      0.2285679589E-02

    ------------------------------------------------
       NWT REQUIRED            3 OUTER ITERATIONS 
       AND A TOTAL OF          5 INNER ITERATIONS.
    ------------------------------------------------

 NO OUTPUT CONTROL FOR STRESS PERIOD    3   TIME STEP    8
 ..........LAKE  1 IS DRY..........
 
 SOLVING FOR HEAD 
                                                   Max.-Head-Change                         Max.-Flux-Residual
  Residual-Control   Outer-Iter.   Inner-Iter.     Column Row Layer    Maximum-Head-Change  Column Row Layer    Maximum-Flux-Residual          L2-NORM 
          0                 1           2             6    3     2       0.5447502495E-01       4    8    2         0.1017821505E+01      0.4045834801E+01
          0                 2           2             4    8     2      -0.1703049791E-02       4    9    2        -0.4705665899E-01      0.1420789430E+00
          0                 3           1             6   11     2       0.2600799467E-04       6   11    2         0.7923386429E-03      0.2280807713E-02

    ------------------------------------------------
       NWT REQUIRED            3 OUTER ITERATIONS 
       AND A TOTAL OF          5 INNER ITERATIONS.
    ------------------------------------------------

 NO OUTPUT CONTROL FOR STRESS PERIOD    3   TIME STEP    9
 ..........LAKE  1 IS DRY..........
 
 SOLVING FOR HEAD 
                                                   Max.-Head-Change                         Max.-Flux-Residual
  Residual-Control   Outer-Iter.   Inner-Iter.     Column Row Layer    Maximum-Head-Change  Column Row Layer    Maximum-Flux-Residual          L2-NORM 
          0                 1           2             6    3     2       0.5311745266E-01       4    8    2         0.9971121217E+00      0.3907982048E+01
          0                 2           2             4    8     2      -0.1668602874E-02       4    8    2        -0.4606725606E-01      0.1381043774E+00
          0                 3           1             6   11     2       0.2732830900E-04       6   11    2         0.8269940245E-03      0.2327383464E-02

    ------------------------------------------------
       NWT REQUIRED            3 OUTER ITERATIONS 
       AND A TOTAL OF          5 INNER ITERATIONS.
    ------------------------------------------------

 OUTPUT CONTROL FOR STRESS PERIOD    3   TIME STEP   10
    PRINT BUDGET
    SAVE BUDGET

            WELLS   PERIOD    3   STEP  10
 WELL      1   LAYER   2   ROW     6   COL     4   RATE    -1.00000    
 WELL      2   LAYER   2   ROW     6   COL     5   RATE    -1.00000    
 WELL      3   LAYER   2   ROW     7   COL     4   RATE    -1.00000    
 WELL      4   LAYER   2   ROW     7   COL     5   RATE    -1.00000    
 WELL      5   LAYER   2   ROW     8   COL     4   RATE    -1.00000    
 WELL      6   LAYER   2   ROW     8   COL     5   RATE    -1.00000    
 WELL      7   LAYER   2   ROW     9   COL     4   RATE    -1.00000    
 WELL      8   LAYER   2   ROW     9   COL     5   RATE    -1.00000    
 WELL      9   LAYER   2   ROW    10   COL     4   RATE    -1.00000    
 WELL     10   LAYER   2   ROW    10   COL     5   RATE    -1.00000    

  HEAD DEP BOUNDS   PERIOD    3   STEP    10
 BOUNDARY      1   LAYER   2   ROW    13   COL     1   RATE   -0.290385    
 BOUNDARY      2   LAYER   2   ROW    14   COL     9   RATE    0.214579    



 STREAM LISTING     PERIOD      3   STEP       10

 LAYER ROW COL. STREAM  RCH.  FLOW INTO     FLOW TO   FLOW OUT OF   OVRLND.     DIRECT     STREAM       STREAM     STREAM     STREAM   STREAMBED  STREAMBED
                SEG.NO.  NO.  STRM. RCH.    AQUIFER    STRM. RCH.    RUNOFF     PRECIP       ET          HEAD       DEPTH      WIDTH   CONDCTNC.   GRADIENT

   2    1    1     1     1    2.4000E+01  1.9215E+00   2.2079E+01  0.000E+00  0.000E+00  0.000E+00  1.09420E+03  1.150E+00  1.266E+01  5.698E-01  1.124E+00
   2    2    2     1     2    2.2079E+01  3.4713E+00   1.8607E+01  0.000E+00  0.000E+00  0.000E+00  1.08916E+03  1.106E+00  1.208E+01  8.454E-01  1.369E+00
   2    3    3     1     3    1.8607E+01  2.7118E+00   1.5895E+01  0.000E+00  0.000E+00  0.000E+00  1.08347E+03  1.054E+00  1.115E+01  6.689E-01  1.351E+00
   2    3    4     1     4    1.5895E+01  2.2935E+00   1.3602E+01  0.000E+00  0.000E+00  0.000E+00  1.07842E+03  1.007E+00  1.031E+01  5.724E-01  1.336E+00
   2    4    5     2     1    3.6019E+00  2.5661E+00   1.0357E+00  0.000E+00  0.000E+00  0.000E+00  1.07222E+03  2.899E-01  1.200E+01  7.800E-01  1.097E+00
   2    5    6     2     2    1.0357E+00  1.0357E+00   0.0000E+00  0.000E+00  0.000E+00  0.000E+00  1.06655E+03  4.022E-02  1.200E+01  6.000E-01  1.013E+00
   2    6    6     2     3    0.0000E+00  0.0000E+00   0.0000E+00  0.000E+00  0.000E+00  0.000E+00  1.06179E+03  0.000E+00  1.200E+01  6.000E-01  1.000E+00
   2    7    6     2     4    0.0000E+00  0.0000E+00   0.0000E+00  0.000E+00  0.000E+00  0.000E+00  1.05708E+03  0.000E+00  1.200E+01  6.000E-01  1.000E+00
   2    8    6     2     5    0.0000E+00  0.0000E+00   0.0000E+00  0.000E+00  0.000E+00  0.000E+00  1.05236E+03  0.000E+00  1.200E+01  6.000E-01  1.000E+00
   2    3    5     3     1    1.0000E+01  2.8252E+00   7.1748E+00  0.000E+00  0.000E+00  0.000E+00  1.07555E+03  1.909E+00  9.636E+00  7.227E-01  1.955E+00
   2    3    6     3     2    7.1748E+00  2.4905E+00   4.6843E+00  0.000E+00  0.000E+00  0.000E+00  1.07264E+03  1.727E+00  8.909E+00  6.682E-01  1.864E+00
   2    3    7     3     3    4.6843E+00  1.9718E+00   2.7125E+00  0.000E+00  0.000E+00  0.000E+00  1.06987E+03  1.555E+00  8.218E+00  5.547E-01  1.777E+00
   2    4    8     3     4    2.7125E+00  2.2567E+00   4.5579E-01  0.000E+00  0.000E+00  0.000E+00  1.06682E+03  1.364E+00  7.455E+00  6.709E-01  1.682E+00
   2    5    8     3     5    4.5579E-01  4.5579E-01   0.0000E+00  0.000E+00  0.000E+00  0.000E+00  1.06362E+03  0.000E+00  6.655E+00  4.991E-01  1.582E+00
   2    6    8     3     6    0.0000E+00  0.0000E+00   0.0000E+00  0.000E+00  0.000E+00  0.000E+00  1.06055E+03  0.000E+00  6.145E+00  1.844E-01  1.000E+00
   2    5   10     4     1    1.0000E+01  9.0525E-01   9.0947E+00  0.000E+00  0.000E+00  0.000E+00  1.07835E+03  6.210E-01  1.000E+01  2.500E-01  1.207E+00
   2    5    9     4     2    9.0947E+00  1.7835E+00   7.3113E+00  0.000E+00  0.000E+00  0.000E+00  1.07148E+03  5.670E-01  1.000E+01  5.000E-01  1.189E+00
   2    6    8     4     3    7.3113E+00  1.2257E+00   6.0855E+00  0.000E+00  0.000E+00  0.000E+00  1.06368E+03  5.021E-01  1.000E+01  3.500E-01  1.167E+00
   2    6    8     5     1    6.0855E+00  1.4716E+00   4.6139E+00  0.000E+00  0.000E+00  0.000E+00  1.05854E+03  5.396E-01  1.039E+01  4.158E-01  1.180E+00
   2    7    7     5     2    4.6139E+00  1.4897E+00   3.1242E+00  0.000E+00  0.000E+00  0.000E+00  1.05398E+03  4.817E-01  8.557E+00  4.279E-01  1.161E+00
   2    8    7     5     3    3.1242E+00  8.2855E-01   2.2957E+00  0.000E+00  0.000E+00  0.000E+00  1.04968E+03  4.253E-01  6.911E+00  2.419E-01  1.142E+00
   2    8    6     5     4    2.2957E+00  4.9455E-01   1.8011E+00  0.000E+00  0.000E+00  0.000E+00  1.04664E+03  3.856E-01  5.843E+00  1.461E-01  1.129E+00
   2    9    6     6     1    1.8011E+00  1.8011E+00   0.0000E+00  0.000E+00  0.000E+00  0.000E+00  1.04278E+03  5.669E-02  1.200E+01  6.000E-01  1.019E+00
   2   10    7     6     2    0.0000E+00  0.0000E+00   0.0000E+00  0.000E+00  0.000E+00  0.000E+00  1.03818E+03  0.000E+00  1.200E+01  6.000E-01  1.000E+00
   2   11    7     6     3    0.0000E+00  0.0000E+00   0.0000E+00  0.000E+00  0.000E+00  0.000E+00  1.03364E+03  0.000E+00  1.200E+01  6.000E-01  1.000E+00
   2   12    7     6     4    0.0000E+00  0.0000E+00   0.0000E+00  0.000E+00  0.000E+00  0.000E+00  1.02909E+03  0.000E+00  1.200E+01  6.000E-01  5.437E-01
   2   13    7     6     5    0.0000E+00 -7.4384E-01   7.4384E-01  0.000E+00  0.000E+00  0.000E+00  1.02601E+03  9.778E-02  1.200E+01  2.400E-01 -1.033E+00
   2   14    9     7     1    1.5000E+02  2.8580E+00   1.4714E+02  0.000E+00  0.000E+00  0.000E+00  1.03986E+03  2.284E+00  5.528E+01  5.591E+00  1.704E-01
   2   13    8     7     2    1.4714E+02  3.9242E+00   1.4322E+02  0.000E+00  0.000E+00  0.000E+00  1.03477E+03  2.266E+00  5.520E+01  6.140E+00  2.130E-01
   2   13    7     7     3    1.4322E+02  3.1192E+00   1.4010E+02  0.000E+00  0.000E+00  0.000E+00  1.02967E+03  2.247E+00  5.511E+01  5.573E+00  1.866E-01
   2   13    6     8     1    1.4084E+02  1.2346E+00   1.3961E+02  0.000E+00  0.000E+00  0.000E+00  1.02462E+03  2.747E+00  3.982E+01  4.058E+00  1.014E-01
   2   13    5     8     2    1.3961E+02 -1.9820E+00   1.4159E+02  0.000E+00  0.000E+00  0.000E+00  1.01837E+03  2.749E+00  3.986E+01  4.062E+00 -1.626E-01
   2   13    4     8     3    1.4159E+02 -5.0232E+00   1.4661E+02  0.000E+00  0.000E+00  0.000E+00  1.01215E+03  2.775E+00  4.023E+01  4.100E+00 -4.084E-01
   2   13    3     8     4    1.4661E+02 -5.7787E+00   1.5239E+02  0.000E+00  0.000E+00  0.000E+00  1.00594E+03  2.813E+00  4.079E+01  4.157E+00 -4.634E-01
   2   13    2     8     5    1.5239E+02 -3.4809E+00   1.5587E+02  0.000E+00  0.000E+00  0.000E+00  9.99721E+02  2.846E+00  4.126E+01  4.205E+00 -2.759E-01
   2   13    1     8     6    1.5587E+02 -2.2894E+00   1.5816E+02  0.000E+00  0.000E+00  0.000E+00  9.94741E+02  2.866E+00  4.155E+01  2.540E+00 -3.004E-01
   2    4    5     9     1    0.0000E+00  0.0000E+00   0.0000E+00  0.000E+00  0.000E+00  0.000E+00  1.06000E+03  0.000E+00  2.000E+01  2.000E-03  1.000E+00
   2    4    5    10     1    0.0000E+00  0.0000E+00   0.0000E+00  0.000E+00  0.000E+00  0.000E+00  1.08000E+03  0.000E+00  2.000E+01  2.000E-03  1.000E+00



 ..........LAKE  1 IS DRY..........

     SECTIONS OF THE LAKE BOTTOM HAVE BECOME DRY.  THE DRYSECTIONS
     LIE ABOVE THE FOLLOWING  1 AQUIFER CELLS (LAYER,ROW,COLUMN):
     (  2,  4,  5)  (

 PERIOD     3     TIME STEP    10     TIME STEP LENGTH  1.7520E+05
 PERIOD TIME  1.7520E+06     TOTAL SIMULATION TIME  7.0080E+06


                 HYDROLOGIC BUDGET SUMMARIES FOR SIMULATED LAKES
     (ALL FLUID FLUXES ARE VOLUMES ADDED TO THE LAKE DURING PRESENT TIME STEP)
     ----------------------------------------------------------------------------------------
 LAKE    STAGE         VOLUME     VOL. CHANGE      PRECIP     EVAPORATION    SPECIFIED RUNOFF     COMPUTED RUNOFF    TOTAL RUNOFF
   1  1.074500E+03  0.000000E+00  0.000000E+00  0.000000E+00  0.000000E+00   0.000000E+00          0.000000E+00      0.000000E+00

            GROUND WATER            SURFACE WATER        WATER          UZF INFIL.
 LAKE    INFLOW     OUTFLOW      INFLOW     OUTFLOW       USE        FROM LAKE
   1  0.0000E+00  0.0000E+00  0.0000E+00  0.0000E+00  0.0000E+00       0.0000E+00

      CONNECTED LAKE   TIME-STEP         STAGE-CHANGE          PERCENT
 LAKE    INFLUX      SURFACE AREA   TIME STEP  CUMULATIVE    DISCREPANCY
   1   0.0000E+00     0.0000E+00   0.0000E+00  0.0000E+00       0.000
 --------------------------------------------------------------------------------



            CUMULATIVE HYDROLOGIC BUDGET SUMMARIES FOR SIMULATED LAKES
     (ALL FLUID FLUXES ARE SUMS OF VOLUMES ADDED TO THE LAKE SINCE INITIAL TIME)
     ---------------------------------------------------------------------------
 LAKE       PRECIP       EVAP     SPECIFIED RUNOFF   COMPUTED RUNOFF   TOTAL RUNOFF
   1     0.0000E+00  0.0000E+00       0.0000E+00       0.0000E+00       0.0000E+00

            GROUND WATER            SURFACE WATER       UZF INFIL.
 LAKE    INFLOW     OUTFLOW      INFLOW     OUTFLOW     FROM LAKE
   1  0.0000E+00  0.0000E+00  0.0000E+00  0.0000E+00    0.0000E+00

         WATER    CONNECTED LAKE   CHANGE       PERCENT
 LAKE     USE         INFLUX       IN VOL.    DISCREPANCY
   1   0.0000E+00   0.0000E+00   0.0000E+00      0.000
 --------------------------------------------------------------------------------

 UBDSV3 SAVING "           GW ET" ON UNIT  61 AT TIME STEP 10, STRESS PERIOD 3
 UBDSV3 SAVING "    UZF RECHARGE" ON UNIT  61 AT TIME STEP 10, STRESS PERIOD 3
 UBDSV3 SAVING " SURFACE LEAKAGE" ON UNIT  61 AT TIME STEP 10, STRESS PERIOD 3
 UBDSV3 SAVING "       HORT+DUNN" ON UNIT  61 AT TIME STEP 10, STRESS PERIOD 3
 UBDSV3 SAVING "  STORAGE CHANGE" ON UNIT  61 AT TIME STEP 10, STRESS PERIOD 3


UNSATURATED ZONE PACKAGE VOLUMETRIC BUDGET FOR  TIME STEP    10 STRESS PERIOD    3
  ------------------------------------------------------------------------------



     CUMULATIVE VOLUMES      L**3       RATES FOR THIS TIME STEP      L**3/T
     ------------------                 ------------------------

           IN:                                      IN:
           ---                                      ---
        INFILTRATION =   327917460.0000          INFILTRATION =          84.5000

          OUT:                                     OUT:
          ----                                     ----
              UZF ET =   468019144.2416                UZF ET =          58.8232
        UZF RECHARGE =   158133253.3036          UZF RECHARGE =          27.0968

            IN - OUT =  -298234937.5451              IN - OUT =          -1.4200

          STORAGE:                                 STORAGE:
          --------                                 --------
      STORAGE CHANGE =  -298158142.0764        STORAGE CHANGE =          -1.4134

 PERCENT DISCREPANCY IS DIFFERENCE BETWEEN IN-OUT MINUS CHANGE IN STORAGE
 DIVIDED BY THE AVERAGE OF IN AND OUT TIMES 100

 PERCENT DISCREPANCY =          -0.00     PERCENT DISCREPANCY =          -0.01






1
  VOLUMETRIC BUDGET FOR ENTIRE MODEL AT END OF TIME STEP   10, STRESS PERIOD   3
  ------------------------------------------------------------------------------

     CUMULATIVE VOLUMES      L**3       RATES FOR THIS TIME STEP      L**3/T
     ------------------                 ------------------------

           IN:                                      IN:
           ---                                      ---
             STORAGE     =     8855102.0000               STORAGE     =           0.9156
       CONSTANT HEAD     =           0.0000         CONSTANT HEAD     =           0.0000
               WELLS     =           0.0000                 WELLS     =           0.0000
     HEAD DEP BOUNDS     =     1507170.3750       HEAD DEP BOUNDS     =           0.2146
      STREAM LEAKAGE     =   334686464.0000        STREAM LEAKAGE     =          45.1359
       LAKE  SEEPAGE     =           0.0000         LAKE  SEEPAGE     =           0.0000
        UZF RECHARGE     =   158133248.0000          UZF RECHARGE     =          27.0968
               GW ET     =           0.0000                 GW ET     =           0.0000
     SURFACE LEAKAGE     =           0.0000       SURFACE LEAKAGE     =           0.0000

                TOTAL IN =   503181984.0000                  TOTAL IN =          73.3628

          OUT:                                     OUT:
          ----                                     ----
             STORAGE     =   165202304.0000               STORAGE     =          30.9753
       CONSTANT HEAD     =           0.0000         CONSTANT HEAD     =           0.0000
               WELLS     =   122640000.0000                 WELLS     =          10.0000
     HEAD DEP BOUNDS     =     2017819.3750       HEAD DEP BOUNDS     =           0.2904
      STREAM LEAKAGE     =   126551232.0000        STREAM LEAKAGE     =          19.2980
       LAKE  SEEPAGE     =           0.0000         LAKE  SEEPAGE     =           0.0000
        UZF RECHARGE     =           0.0000          UZF RECHARGE     =           0.0000
               GW ET     =    86764192.0000                 GW ET     =          12.7991
     SURFACE LEAKAGE     =           0.0000       SURFACE LEAKAGE     =           0.0000

               TOTAL OUT =   503175552.0000                 TOTAL OUT =          73.3628

                IN - OUT =        6432.0000                  IN - OUT =       2.2888E-05

     PERCENT DISCREPANCY =           0.00         PERCENT DISCREPANCY =           0.00






         TIME SUMMARY AT END OF TIME STEP   10 IN STRESS PERIOD    3
                    SECONDS     MINUTES      HOURS       DAYS        YEARS
                    -----------------------------------------------------------
   TIME STEP LENGTH 1.75200E+05  2920.0      48.667      2.0278     5.55175E-03
 STRESS PERIOD TIME 1.75200E+06  29200.      486.67      20.278     5.55175E-02
         TOTAL TIME 7.00800E+06 1.16800E+05  1946.7      81.111     0.22207    
1
 
 SOLVING FOR HEAD 
                                                   Max.-Head-Change                         Max.-Flux-Residual
  Residual-Control   Outer-Iter.   Inner-Iter.     Column Row Layer    Maximum-Head-Change  Column Row Layer    Maximum-Flux-Residual          L2-NORM 
          0                 1           2             6    3     2       0.5176686476E-01       4    8    2         0.9763814650E+00      0.3862704555E+01
          0                 2           2             4    8     2      -0.1633758936E-02       4    8    2        -0.4511874289E-01      0.1395497106E+00
          0                 3           1             6   11     2       0.2853873117E-04       6   11    2         0.8617963472E-03      0.2486207276E-02

    ------------------------------------------------
       NWT REQUIRED            3 OUTER ITERATIONS 
       AND A TOTAL OF          5 INNER ITERATIONS.
    ------------------------------------------------

 NO OUTPUT CONTROL FOR STRESS PERIOD    3   TIME STEP   11
 ..........LAKE  1 IS DRY..........
 
 SOLVING FOR HEAD 
                                                   Max.-Head-Change                         Max.-Flux-Residual
  Residual-Control   Outer-Iter.   Inner-Iter.     Column Row Layer    Maximum-Head-Change  Column Row Layer    Maximum-Flux-Residual          L2-NORM 
          0                 1           2             6    3     2       0.5042398156E-01       4    8    2         0.9559113703E+00      0.3788443502E+01
          0                 2           2             4    8     2      -0.1600419891E-02       6    5    2         0.4841693771E-01      0.1403129237E+00
          0                 3           1             6   11     2       0.2985027465E-04       6   11    2         0.8969294431E-03      0.2656733983E-02

    ------------------------------------------------
       NWT REQUIRED            3 OUTER ITERATIONS 
       AND A TOTAL OF          5 INNER ITERATIONS.
    ------------------------------------------------

 NO OUTPUT CONTROL FOR STRESS PERIOD    3   TIME STEP   12
 ..........LAKE  1 IS DRY..........
 
 SOLVING FOR HEAD 
                                                   Max.-Head-Change                         Max.-Flux-Residual
  Residual-Control   Outer-Iter.   Inner-Iter.     Column Row Layer    Maximum-Head-Change  Column Row Layer    Maximum-Flux-Residual          L2-NORM 
          0                 1           2             6    3     2       0.4908825249E-01       4    8    2         0.9352443266E+00      0.3659484000E+01
          0                 2           2             4    8     2      -0.1565549456E-02       4    8    2        -0.4324571119E-01      0.1352755013E+00
          0                 3           1             6   11     2       0.3100740090E-04       6   11    2         0.9308080207E-03      0.2655937325E-02

    ------------------------------------------------
       NWT REQUIRED            3 OUTER ITERATIONS 
       AND A TOTAL OF          5 INNER ITERATIONS.
    ------------------------------------------------

 NO OUTPUT CONTROL FOR STRESS PERIOD    3   TIME STEP   13
 ..........LAKE  1 IS DRY..........
 
 SOLVING FOR HEAD 
                                                   Max.-Head-Change                         Max.-Flux-Residual
  Residual-Control   Outer-Iter.   Inner-Iter.     Column Row Layer    Maximum-Head-Change  Column Row Layer    Maximum-Flux-Residual          L2-NORM 
          0                 1           2             6    3     2       0.4777485975E-01       4    8    2         0.9150903190E+00      0.3529976379E+01
          0                 2           2             4    8     2      -0.1532375742E-02       4    8    2        -0.4233066054E-01      0.1314412819E+00
          0                 3           1             6   11     2       0.3224122463E-04       6   11    2         0.9639006616E-03      0.2700569200E-02

    ------------------------------------------------
       NWT REQUIRED            3 OUTER ITERATIONS 
       AND A TOTAL OF          5 INNER ITERATIONS.
    ------------------------------------------------

 NO OUTPUT CONTROL FOR STRESS PERIOD    3   TIME STEP   14
 ..........LAKE  1 IS DRY..........
 
 SOLVING FOR HEAD 
                                                   Max.-Head-Change                         Max.-Flux-Residual
  Residual-Control   Outer-Iter.   Inner-Iter.     Column Row Layer    Maximum-Head-Change  Column Row Layer    Maximum-Flux-Residual          L2-NORM 
          0                 1           2            10   10     2       0.4688127400E-01       4    8    2         0.8950343408E+00      0.3370450684E+01
          0                 2           2             4    8     2      -0.1498904596E-02       4    8    2        -0.4141297540E-01      0.1241259963E+00
          0                 3           1             6   11     2       0.3329501243E-04       6   11    2         0.9952117180E-03      0.2576709559E-02

    ------------------------------------------------
       NWT REQUIRED            3 OUTER ITERATIONS 
       AND A TOTAL OF          5 INNER ITERATIONS.
    ------------------------------------------------

 OUTPUT CONTROL FOR STRESS PERIOD    3   TIME STEP   15
    PRINT BUDGET
    PRINT HEAD FOR ALL LAYERS
    SAVE HEAD FOR ALL LAYERS
    SAVE BUDGET

            WELLS   PERIOD    3   STEP  15
 WELL      1   LAYER   2   ROW     6   COL     4   RATE    -1.00000    
 WELL      2   LAYER   2   ROW     6   COL     5   RATE    -1.00000    
 WELL      3   LAYER   2   ROW     7   COL     4   RATE    -1.00000    
 WELL      4   LAYER   2   ROW     7   COL     5   RATE    -1.00000    
 WELL      5   LAYER   2   ROW     8   COL     4   RATE    -1.00000    
 WELL      6   LAYER   2   ROW     8   COL     5   RATE    -1.00000    
 WELL      7   LAYER   2   ROW     9   COL     4   RATE    -1.00000    
 WELL      8   LAYER   2   ROW     9   COL     5   RATE    -1.00000    
 WELL      9   LAYER   2   ROW    10   COL     4   RATE    -1.00000    
 WELL     10   LAYER   2   ROW    10   COL     5   RATE    -1.00000    

  HEAD DEP BOUNDS   PERIOD    3   STEP    15
 BOUNDARY      1   LAYER   2   ROW    13   COL     1   RATE   -0.290716    
 BOUNDARY      2   LAYER   2   ROW    14   COL     9   RATE    0.214608    



 STREAM LISTING     PERIOD      3   STEP       15

 LAYER ROW COL. STREAM  RCH.  FLOW INTO     FLOW TO   FLOW OUT OF   OVRLND.     DIRECT     STREAM       STREAM     STREAM     STREAM   STREAMBED  STREAMBED
                SEG.NO.  NO.  STRM. RCH.    AQUIFER    STRM. RCH.    RUNOFF     PRECIP       ET          HEAD       DEPTH      WIDTH   CONDCTNC.   GRADIENT

   2    1    1     1     1    2.3879E+01  1.9270E+00   2.1952E+01  0.000E+00  0.000E+00  0.000E+00  1.09420E+03  1.148E+00  1.264E+01  5.687E-01  1.130E+00
   2    2    2     1     2    2.1952E+01  3.4617E+00   1.8490E+01  0.000E+00  0.000E+00  0.000E+00  1.08916E+03  1.104E+00  1.205E+01  8.435E-01  1.368E+00
   2    3    3     1     3    1.8490E+01  2.7018E+00   1.5789E+01  0.000E+00  0.000E+00  0.000E+00  1.08347E+03  1.052E+00  1.111E+01  6.668E-01  1.351E+00
   2    3    4     1     4    1.5789E+01  2.2844E+00   1.3504E+01  0.000E+00  0.000E+00  0.000E+00  1.07841E+03  1.005E+00  1.028E+01  5.704E-01  1.335E+00
   2    4    5     2     1    3.5041E+00  2.5605E+00   9.4357E-01  0.000E+00  0.000E+00  0.000E+00  1.07222E+03  2.828E-01  1.200E+01  7.800E-01  1.094E+00
   2    5    6     2     2    9.4357E-01  9.4357E-01   0.0000E+00  0.000E+00  0.000E+00  0.000E+00  1.06653E+03  1.902E-02  1.200E+01  6.000E-01  1.006E+00
   2    6    6     2     3    0.0000E+00  0.0000E+00   0.0000E+00  0.000E+00  0.000E+00  0.000E+00  1.06179E+03  0.000E+00  1.200E+01  6.000E-01  1.000E+00
   2    7    6     2     4    0.0000E+00  0.0000E+00   0.0000E+00  0.000E+00  0.000E+00  0.000E+00  1.05708E+03  0.000E+00  1.200E+01  6.000E-01  1.000E+00
   2    8    6     2     5    0.0000E+00  0.0000E+00   0.0000E+00  0.000E+00  0.000E+00  0.000E+00  1.05236E+03  0.000E+00  1.200E+01  6.000E-01  1.000E+00
   2    3    5     3     1    1.0000E+01  2.8252E+00   7.1748E+00  0.000E+00  0.000E+00  0.000E+00  1.07555E+03  1.909E+00  9.636E+00  7.227E-01  1.955E+00
   2    3    6     3     2    7.1748E+00  2.4905E+00   4.6843E+00  0.000E+00  0.000E+00  0.000E+00  1.07264E+03  1.727E+00  8.909E+00  6.682E-01  1.864E+00
   2    3    7     3     3    4.6843E+00  1.9718E+00   2.7125E+00  0.000E+00  0.000E+00  0.000E+00  1.06987E+03  1.555E+00  8.218E+00  5.547E-01  1.777E+00
   2    4    8     3     4    2.7125E+00  2.2567E+00   4.5579E-01  0.000E+00  0.000E+00  0.000E+00  1.06682E+03  1.364E+00  7.455E+00  6.709E-01  1.682E+00
   2    5    8     3     5    4.5579E-01  4.5579E-01   0.0000E+00  0.000E+00  0.000E+00  0.000E+00  1.06362E+03  0.000E+00  6.655E+00  4.991E-01  1.582E+00
   2    6    8     3     6    0.0000E+00  0.0000E+00   0.0000E+00  0.000E+00  0.000E+00  0.000E+00  1.06055E+03  0.000E+00  6.145E+00  1.844E-01  1.000E+00
   2    5   10     4     1    1.0000E+01  9.0525E-01   9.0947E+00  0.000E+00  0.000E+00  0.000E+00  1.07835E+03  6.210E-01  1.000E+01  2.500E-01  1.207E+00
   2    5    9     4     2    9.0947E+00  1.7835E+00   7.3113E+00  0.000E+00  0.000E+00  0.000E+00  1.07148E+03  5.670E-01  1.000E+01  5.000E-01  1.189E+00
   2    6    8     4     3    7.3113E+00  1.2257E+00   6.0855E+00  0.000E+00  0.000E+00  0.000E+00  1.06368E+03  5.021E-01  1.000E+01  3.500E-01  1.167E+00
   2    6    8     5     1    6.0855E+00  1.4716E+00   4.6139E+00  0.000E+00  0.000E+00  0.000E+00  1.05854E+03  5.396E-01  1.039E+01  4.158E-01  1.180E+00
   2    7    7     5     2    4.6139E+00  1.4897E+00   3.1242E+00  0.000E+00  0.000E+00  0.000E+00  1.05398E+03  4.817E-01  8.557E+00  4.279E-01  1.161E+00
   2    8    7     5     3    3.1242E+00  8.2855E-01   2.2957E+00  0.000E+00  0.000E+00  0.000E+00  1.04968E+03  4.253E-01  6.911E+00  2.419E-01  1.142E+00
   2    8    6     5     4    2.2957E+00  4.9455E-01   1.8011E+00  0.000E+00  0.000E+00  0.000E+00  1.04664E+03  3.856E-01  5.843E+00  1.461E-01  1.129E+00
   2    9    6     6     1    1.8011E+00  1.8011E+00   0.0000E+00  0.000E+00  0.000E+00  0.000E+00  1.04278E+03  5.669E-02  1.200E+01  6.000E-01  1.019E+00
   2   10    7     6     2    0.0000E+00  0.0000E+00   0.0000E+00  0.000E+00  0.000E+00  0.000E+00  1.03818E+03  0.000E+00  1.200E+01  6.000E-01  1.000E+00
   2   11    7     6     3    0.0000E+00  0.0000E+00   0.0000E+00  0.000E+00  0.000E+00  0.000E+00  1.03364E+03  0.000E+00  1.200E+01  6.000E-01  1.000E+00
   2   12    7     6     4    0.0000E+00  0.0000E+00   0.0000E+00  0.000E+00  0.000E+00  0.000E+00  1.02909E+03  0.000E+00  1.200E+01  6.000E-01  5.403E-01
   2   13    7     6     5    0.0000E+00 -7.4502E-01   7.4502E-01  0.000E+00  0.000E+00  0.000E+00  1.02601E+03  9.787E-02  1.200E+01  2.400E-01 -1.035E+00
   2   14    9     7     1    1.5000E+02  2.8622E+00   1.4714E+02  0.000E+00  0.000E+00  0.000E+00  1.03986E+03  2.284E+00  5.528E+01  5.591E+00  1.706E-01
   2   13    8     7     2    1.4714E+02  3.9186E+00   1.4322E+02  0.000E+00  0.000E+00  0.000E+00  1.03477E+03  2.266E+00  5.520E+01  6.140E+00  2.127E-01
   2   13    7     7     3    1.4322E+02  3.0917E+00   1.4013E+02  0.000E+00  0.000E+00  0.000E+00  1.02967E+03  2.247E+00  5.511E+01  5.573E+00  1.849E-01
   2   13    6     8     1    1.4087E+02  1.2018E+00   1.3967E+02  0.000E+00  0.000E+00  0.000E+00  1.02462E+03  2.747E+00  3.983E+01  4.059E+00  9.870E-02
   2   13    5     8     2    1.3967E+02 -2.0149E+00   1.4169E+02  0.000E+00  0.000E+00  0.000E+00  1.01837E+03  2.750E+00  3.987E+01  4.063E+00 -1.653E-01
   2   13    4     8     3    1.4169E+02 -5.0592E+00   1.4674E+02  0.000E+00  0.000E+00  0.000E+00  1.01215E+03  2.776E+00  4.025E+01  4.101E+00 -4.112E-01
   2   13    3     8     4    1.4674E+02 -5.8098E+00   1.5255E+02  0.000E+00  0.000E+00  0.000E+00  1.00594E+03  2.814E+00  4.081E+01  4.159E+00 -4.657E-01
   2   13    2     8     5    1.5255E+02 -3.4992E+00   1.5605E+02  0.000E+00  0.000E+00  0.000E+00  9.99722E+02  2.847E+00  4.128E+01  4.207E+00 -2.773E-01
   2   13    1     8     6    1.5605E+02 -2.3092E+00   1.5836E+02  0.000E+00  0.000E+00  0.000E+00  9.94742E+02  2.867E+00  4.157E+01  2.542E+00 -3.029E-01
   2    4    5     9     1    0.0000E+00  0.0000E+00   0.0000E+00  0.000E+00  0.000E+00  0.000E+00  1.06000E+03  0.000E+00  2.000E+01  2.000E-03  1.000E+00
   2    4    5    10     1    0.0000E+00  0.0000E+00   0.0000E+00  0.000E+00  0.000E+00  0.000E+00  1.08000E+03  0.000E+00  2.000E+01  2.000E-03  1.000E+00



 ..........LAKE  1 IS DRY..........

     SECTIONS OF THE LAKE BOTTOM HAVE BECOME DRY.  THE DRYSECTIONS
     LIE ABOVE THE FOLLOWING  1 AQUIFER CELLS (LAYER,ROW,COLUMN):
     (  2,  4,  5)  (

 PERIOD     3     TIME STEP    15     TIME STEP LENGTH  1.7520E+05
 PERIOD TIME  2.6280E+06     TOTAL SIMULATION TIME  7.8840E+06


                 HYDROLOGIC BUDGET SUMMARIES FOR SIMULATED LAKES
     (ALL FLUID FLUXES ARE VOLUMES ADDED TO THE LAKE DURING PRESENT TIME STEP)
     ----------------------------------------------------------------------------------------
 LAKE    STAGE         VOLUME     VOL. CHANGE      PRECIP     EVAPORATION    SPECIFIED RUNOFF     COMPUTED RUNOFF    TOTAL RUNOFF
   1  1.074500E+03  0.000000E+00  0.000000E+00  0.000000E+00  0.000000E+00   0.000000E+00          0.000000E+00      0.000000E+00

            GROUND WATER            SURFACE WATER        WATER          UZF INFIL.
 LAKE    INFLOW     OUTFLOW      INFLOW     OUTFLOW       USE        FROM LAKE
   1  0.0000E+00  0.0000E+00  0.0000E+00  0.0000E+00  0.0000E+00       0.0000E+00

      CONNECTED LAKE   TIME-STEP         STAGE-CHANGE          PERCENT
 LAKE    INFLUX      SURFACE AREA   TIME STEP  CUMULATIVE    DISCREPANCY
   1   0.0000E+00     0.0000E+00   0.0000E+00  0.0000E+00       0.000
 --------------------------------------------------------------------------------



            CUMULATIVE HYDROLOGIC BUDGET SUMMARIES FOR SIMULATED LAKES
     (ALL FLUID FLUXES ARE SUMS OF VOLUMES ADDED TO THE LAKE SINCE INITIAL TIME)
     ---------------------------------------------------------------------------
 LAKE       PRECIP       EVAP     SPECIFIED RUNOFF   COMPUTED RUNOFF   TOTAL RUNOFF
   1     0.0000E+00  0.0000E+00       0.0000E+00       0.0000E+00       0.0000E+00

            GROUND WATER            SURFACE WATER       UZF INFIL.
 LAKE    INFLOW     OUTFLOW      INFLOW     OUTFLOW     FROM LAKE
   1  0.0000E+00  0.0000E+00  0.0000E+00  0.0000E+00    0.0000E+00

         WATER    CONNECTED LAKE   CHANGE       PERCENT
 LAKE     USE         INFLUX       IN VOL.    DISCREPANCY
   1   0.0000E+00   0.0000E+00   0.0000E+00      0.000
 --------------------------------------------------------------------------------

 UBDSV3 SAVING "           GW ET" ON UNIT  61 AT TIME STEP 15, STRESS PERIOD 3
 UBDSV3 SAVING "    UZF RECHARGE" ON UNIT  61 AT TIME STEP 15, STRESS PERIOD 3
 UBDSV3 SAVING " SURFACE LEAKAGE" ON UNIT  61 AT TIME STEP 15, STRESS PERIOD 3
 UBDSV3 SAVING "       HORT+DUNN" ON UNIT  61 AT TIME STEP 15, STRESS PERIOD 3
 UBDSV3 SAVING "  STORAGE CHANGE" ON UNIT  61 AT TIME STEP 15, STRESS PERIOD 3


UNSATURATED ZONE PACKAGE VOLUMETRIC BUDGET FOR  TIME STEP    15 STRESS PERIOD    3
  ------------------------------------------------------------------------------



     CUMULATIVE VOLUMES      L**3       RATES FOR THIS TIME STEP      L**3/T
     ------------------                 ------------------------

           IN:                                      IN:
           ---                                      ---
        INFILTRATION =   401939460.0000          INFILTRATION =          84.5000

          OUT:                                     OUT:
          ----                                     ----
              UZF ET =   521620812.1978                UZF ET =          62.6255
        UZF RECHARGE =   179968075.2744          UZF RECHARGE =          23.4979

            IN - OUT =  -299649427.4722              IN - OUT =          -1.6234

          STORAGE:                                 STORAGE:
          --------                                 --------
      STORAGE CHANGE =  -299563193.4071        STORAGE CHANGE =          -1.6140

 PERCENT DISCREPANCY IS DIFFERENCE BETWEEN IN-OUT MINUS CHANGE IN STORAGE
 DIVIDED BY THE AVERAGE OF IN AND OUT TIMES 100

 PERCENT DISCREPANCY =          -0.00     PERCENT DISCREPANCY =          -0.01






1
              HEAD IN LAYER 1 AT END OF TIME STEP 15 IN STRESS PERIOD 3
  ---------------------------------------------------------------------------

           1       2       3       4       5       6       7       8       9      10
 ...................................................................................
   1  6999.00 6999.00 6999.00 6999.00 6999.00 6999.00 6999.00 6999.00 6999.00 6999.00
   2  6999.00 6999.00 6999.00 6999.00 6999.00 6999.00 6999.00 6999.00 6999.00 6999.00
   3  6999.00 6999.00 6999.00 6999.00 6999.00 6999.00 6999.00 6999.00 6999.00 6999.00
   4  6999.00 6999.00 6999.00 6999.00 6999.00 6999.00 6999.00 6999.00 6999.00 6999.00
   5  6999.00 6999.00 6999.00 6999.00 6999.00 6999.00 6999.00 6999.00 6999.00 6999.00
   6  6999.00 6999.00 6999.00 6999.00 6999.00 6999.00 6999.00 6999.00 6999.00 6999.00
   7  6999.00 6999.00 6999.00 6999.00 6999.00 6999.00 6999.00 6999.00 6999.00 6999.00
   8  6999.00 6999.00 6999.00 6999.00 6999.00 6999.00 6999.00 6999.00 6999.00 6999.00
   9  6999.00 6999.00 6999.00 6999.00 6999.00 6999.00 6999.00 6999.00 6999.00 6999.00
  10  6999.00 6999.00 6999.00 6999.00 6999.00 6999.00 6999.00 6999.00 6999.00 6999.00
  11  6999.00 6999.00 6999.00 6999.00 6999.00 6999.00 6999.00 6999.00 6999.00 6999.00
  12  6999.00 6999.00 6999.00 6999.00 6999.00 6999.00 6999.00 6999.00 6999.00 6999.00
  13  6999.00 6999.00 6999.00 6999.00 6999.00 6999.00 6999.00 6999.00 6999.00 6999.00
  14  6999.00 6999.00 6999.00 6999.00 6999.00 6999.00 6999.00 6999.00 6999.00 6999.00
  15  6999.00 6999.00 6999.00 6999.00 6999.00 6999.00 6999.00 6999.00 6999.00 6999.00
1
              HEAD IN LAYER 2 AT END OF TIME STEP 15 IN STRESS PERIOD 3
  ---------------------------------------------------------------------------

           1       2       3       4       5       6       7       8       9      10
 ...................................................................................
   1  1090.81 1085.47 6999.00 6999.00 6999.00 6999.00 6999.00 6999.00 6999.00 6999.00
   2  1085.79 1079.59 1072.73 6999.00 6999.00 1063.22 1063.22 1062.97 6999.00 6999.00
   3  6999.00 1069.29 1065.49 1061.59 1062.20 1062.87 1063.22 1061.88 6999.00 6999.00
   4  1057.82 1060.04 1058.68 1055.40 1054.25 1053.42 1054.94 1059.02 1057.94 6999.00
   5  1053.66 1053.08 1051.59 1049.71 1049.42 1049.65 1049.86 1051.62 1055.04 1057.24
   6  1049.49 1047.81 1045.91 1044.49 1044.64 1045.83 1047.17 1049.39 1052.22 1056.41
   7  1046.48 1042.97 1040.94 1039.79 1040.30 1041.88 1043.92 1046.22 1048.88 6999.00
   8  6999.00 1037.80 1036.34 1035.44 1036.08 1037.78 1039.56 1042.82 1044.16 6999.00
   9  6999.00 1032.15 1031.44 1031.02 1031.87 1033.78 1034.92 1037.15 1039.34 6999.00
  10  6999.00 1026.49 1026.52 1026.90 1028.08 1029.91 1031.06 1033.02 1035.45 1035.91
  11  6999.00 1019.55 1020.41 1022.95 1024.90 1027.06 1028.70 1030.91 1034.04 6999.00
  12  1003.10 1009.47 1013.61 1018.00 1021.53 1024.93 1027.47 1030.69 1034.58 6999.00
  13   995.65 1000.55 1007.34 1013.38 1018.87 1024.33 1029.11 1034.13 1036.69 6999.00
  14  6999.00 1006.64 1009.95 1014.75 1019.76 1024.61 1029.74 1035.14 1039.35 6999.00
  15  6999.00 6999.00 1014.10 1016.96 1020.71 1024.09 6999.00 6999.00 6999.00 6999.00

 HEAD WILL BE SAVED ON UNIT   58 AT END OF TIME STEP   15, STRESS PERIOD    3
1
  VOLUMETRIC BUDGET FOR ENTIRE MODEL AT END OF TIME STEP   15, STRESS PERIOD   3
  ------------------------------------------------------------------------------

     CUMULATIVE VOLUMES      L**3       RATES FOR THIS TIME STEP      L**3/T
     ------------------                 ------------------------

           IN:                                      IN:
           ---                                      ---
             STORAGE     =     9878615.0000               STORAGE     =           0.4190
       CONSTANT HEAD     =           0.0000         CONSTANT HEAD     =           0.0000
               WELLS     =           0.0000                 WELLS     =           0.0000
     HEAD DEP BOUNDS     =     1695164.3750       HEAD DEP BOUNDS     =           0.2146
      STREAM LEAKAGE     =   373541600.0000        STREAM LEAKAGE     =          44.9533
       LAKE  SEEPAGE     =           0.0000         LAKE  SEEPAGE     =           0.0000
        UZF RECHARGE     =   179968064.0000          UZF RECHARGE     =          23.4979
               GW ET     =           0.0000                 GW ET     =           0.0000
     SURFACE LEAKAGE     =           0.0000       SURFACE LEAKAGE     =           0.0000

                TOTAL IN =   565083456.0000                  TOTAL IN =          69.0848

          OUT:                                     OUT:
          ----                                     ----
             STORAGE     =   189933632.0000               STORAGE     =          26.6261
       CONSTANT HEAD     =           0.0000         CONSTANT HEAD     =           0.0000
               WELLS     =   131400000.0000                 WELLS     =          10.0000
     HEAD DEP BOUNDS     =     2272381.7500       HEAD DEP BOUNDS     =           0.2907
      STREAM LEAKAGE     =   143532496.0000        STREAM LEAKAGE     =          19.4373
       LAKE  SEEPAGE     =           0.0000         LAKE  SEEPAGE     =           0.0000
        UZF RECHARGE     =           0.0000          UZF RECHARGE     =           0.0000
               GW ET     =    97938488.0000                 GW ET     =          12.7307
     SURFACE LEAKAGE     =           0.0000       SURFACE LEAKAGE     =           0.0000

               TOTAL OUT =   565076992.0000                 TOTAL OUT =          69.0848

                IN - OUT =        6464.0000                  IN - OUT =      -1.5259E-05

     PERCENT DISCREPANCY =           0.00         PERCENT DISCREPANCY =          -0.00






         TIME SUMMARY AT END OF TIME STEP   15 IN STRESS PERIOD    3
                    SECONDS     MINUTES      HOURS       DAYS        YEARS
                    -----------------------------------------------------------
   TIME STEP LENGTH 1.75200E+05  2920.0      48.667      2.0278     5.55175E-03
 STRESS PERIOD TIME 2.62800E+06  43800.      730.00      30.417     8.32763E-02
         TOTAL TIME 7.88400E+06 1.31400E+05  2190.0      91.250     0.24983    
1
1
                            STRESS PERIOD NO.    4, LENGTH =   2628000.    
                            -----------------------------------------------

                              NUMBER OF TIME STEPS =    15

                               MULTIPLIER FOR DELT =     1.000

                            INITIAL TIME STEP SIZE =   175200.0    

 WELL NO.  LAYER   ROW   COL   STRESS RATE         
 --------------------------------------------------
      1      2      6      4      -1.000    
      2      2      6      5      -1.000    
      3      2      7      4      -1.000    
      4      2      7      5      -1.000    
      5      2      8      4      -1.000    
      6      2      8      5      -1.000    
      7      2      9      4      -1.000    
      8      2      9      5      -1.000    
      9      2     10      4      -1.000    
     10      2     10      5      -1.000    

     10 WELLS

 REUSING NON-PARAMETER GHB CELLS FROM LAST STRESS PERIOD

      2 GHB CELLS

 REUSING STREAM SEGMENT DATA FROM LAST STRESS PERIOD



            AREAL INFILTRATION RATE
 READING ON UNIT   19 WITH FORMAT: (10F4.0)            

            1           2           3           4           5           6           7           8           9          10
 ........................................................................................................................
   1   2.0000E-08  4.0000E-08   0.000       0.000       0.000       0.000       0.000       0.000       0.000       0.000    
   2   4.0000E-08  2.0000E-08  4.0000E-08   0.000       0.000      1.6000E-07  1.6000E-07  1.0000E-07   0.000       0.000    
   3    0.000      1.0000E-07  2.0000E-08  2.0000E-08  1.6000E-07  1.6000E-07  1.0000E-07  1.0000E-07   0.000       0.000    
   4   1.6000E-07  1.0000E-07  2.0000E-08  2.0000E-08  2.0000E-08  2.0000E-08  2.0000E-08  2.0000E-08  4.0000E-08   0.000    
   5   1.6000E-07  1.0000E-07  2.0000E-08  2.0000E-08  2.0000E-08  2.0000E-08  2.0000E-08  2.0000E-08  2.0000E-08  2.0000E-08
   6   1.6000E-07  1.0000E-07  1.0000E-07  4.0000E-08  4.0000E-08  2.0000E-08  2.0000E-08  2.0000E-08  2.0000E-08  1.0000E-07
   7   1.6000E-07  1.0000E-07  1.0000E-07  4.0000E-08  4.0000E-08  2.0000E-08  2.0000E-08  4.0000E-08  4.0000E-08   0.000    
   8    0.000      1.0000E-07  1.0000E-07  4.0000E-08  4.0000E-08  2.0000E-08  2.0000E-08  4.0000E-08  1.0000E-07   0.000    
   9    0.000      1.0000E-07  1.0000E-07  4.0000E-08  4.0000E-08  2.0000E-08  2.0000E-08  4.0000E-08  1.0000E-07   0.000    
  10    0.000      1.0000E-07  1.0000E-07  4.0000E-08  4.0000E-08  2.0000E-08  2.0000E-08  4.0000E-08  1.0000E-07  1.6000E-07
  11    0.000      2.0000E-08  2.0000E-08  2.0000E-08  2.0000E-08  2.0000E-08  2.0000E-08  4.0000E-08  1.0000E-07   0.000    
  12   2.0000E-08  2.0000E-08  2.0000E-08  2.0000E-08  2.0000E-08  2.0000E-08  2.0000E-08  2.0000E-08  4.0000E-08   0.000    
  13   2.0000E-08  2.0000E-08  4.0000E-08  4.0000E-08  4.0000E-08  4.0000E-08  4.0000E-08  2.0000E-08  2.0000E-08   0.000    
  14    0.000      4.0000E-08  1.0000E-07  1.0000E-07  1.0000E-07  1.0000E-07  1.0000E-07  4.0000E-08  2.0000E-08   0.000    
  15    0.000       0.000      1.6000E-07  1.6000E-07  1.6000E-07  1.6000E-07   0.000       0.000       0.000       0.000    

USING ET RATE FROM PREVIOUS STRESS PERIOD. CURRENT PERIOD IS:       4

 USING ET EXTINCTION DEPTH FROM PREVIOUS STRESS PERIOD. CURRENT PERIOD IS:       4

 USING EXTINCTION WATER CONTENT FROM PREVIOUS STRESS PERIOD. CURRENT PERIOD IS:       4




 If any subsequent steady-state stress periods, min. and max. stages for each lake will be read in Record 9a.




 REUSING LAKE CONFIGURATION DATA FROM LAST STRESS PERIOD


 LAKE       PRECIP     EVAP     RUNOFF   WITHDRAW   BOTTOM     AREA
----------------------------------------------------------------------
   1     0.000E+00 4.000E-08 0.000E+00  0.000E+00 1.074E+03 2.500E+07




         C               INTERFACE CONDUCTANCES BETWEEN LAKE AND AQUIFER CELLS
   L     O          (IF TYPE = 6, CONDUCTANCE (L^2/T) IS BETWEEN AQUIFER CELL AND OVERLYING LAKE CELL.)
   A     L  L  T    (IF TYPE = 1 TO 4, CONDUCTANCES ARE PER UNIT SATURATED THICKNESS (L/T).)
   Y  R  U  A  Y
   E  O  M  K  P                        LAKEBED      C O N D U C T A N C E S
   R  W  N  E  E     DELTA Y   DELTA X  LEAKANCE   LAKEBED   AQUIFER  COMBINED
 _______________________________________________________________________________
   1  4  4  1  2    5.00E+03  5.00E+03  5.00E-02  2.50E+02  6.00E-03  6.00E-03
   1  3  5  1  3    5.00E+03  5.00E+03  5.00E-02  2.50E+02  1.20E-03  1.20E-03
   2  4  5  1  6    5.00E+03  5.00E+03  5.00E-02  1.25E+06  9.42E+00  9.42E+00
   1  5  5  1  4    5.00E+03  5.00E+03  5.00E-02  2.50E+02  6.00E-03  6.00E-03
   1  4  6  1  1    5.00E+03  5.00E+03  5.00E-02  2.50E+02  6.00E-03  6.00E-03
 
      DEAD POOL STORAGE FOR LAKE    1 BELOW SEGMENT   10 IS EQUAL TO     0.1200000000E+09
 
      LAKE     INFLOWING STREAM SEGMENT
         1                  9

 MAXIMUM NUMBER OF STREAMS INFLOWING TO A LAKE IS    1

      LAKE     OUTFLOWING STREAM SEGMENT
         1                 10

 MAXIMUM NUMBER OF STREAMS OUTFLOWING FROM A LAKE IS    1

 
 SOLVING FOR HEAD 
                                                   Max.-Head-Change                         Max.-Flux-Residual
  Residual-Control   Outer-Iter.   Inner-Iter.     Column Row Layer    Maximum-Head-Change  Column Row Layer    Maximum-Flux-Residual          L2-NORM 
          0                 1           2            10   10     2       0.4681485860E-01       4    8    2         0.8752230293E+00      0.3338316225E+01
          0                 2           2             4    8     2      -0.1465457412E-02       4    8    2        -0.4048933947E-01      0.1223609275E+00
          0                 3           1             6   11     2       0.3434530921E-04       6   11    2         0.1025110400E-02      0.2623330273E-02

    ------------------------------------------------
       NWT REQUIRED            3 OUTER ITERATIONS 
       AND A TOTAL OF          5 INNER ITERATIONS.
    ------------------------------------------------

 NO OUTPUT CONTROL FOR STRESS PERIOD    4   TIME STEP    1
 ..........LAKE  1 IS DRY..........
 
 SOLVING FOR HEAD 
                                                   Max.-Head-Change                         Max.-Flux-Residual
  Residual-Control   Outer-Iter.   Inner-Iter.     Column Row Layer    Maximum-Head-Change  Column Row Layer    Maximum-Flux-Residual          L2-NORM 
          0                 1           2            10   10     2       0.4674119145E-01       4    8    2         0.8559886468E+00      0.3302758970E+01
          0                 2           2             4    8     2      -0.1433776939E-02       4    8    2        -0.3961294095E-01      0.1212845914E+00
          0                 3           1             6   11     2       0.3537258285E-04       6   11    2         0.1053613490E-02      0.2733263963E-02

    ------------------------------------------------
       NWT REQUIRED            3 OUTER ITERATIONS 
       AND A TOTAL OF          5 INNER ITERATIONS.
    ------------------------------------------------

 NO OUTPUT CONTROL FOR STRESS PERIOD    4   TIME STEP    2
 ..........LAKE  1 IS DRY..........
 
 SOLVING FOR HEAD 
                                                   Max.-Head-Change                         Max.-Flux-Residual
  Residual-Control   Outer-Iter.   Inner-Iter.     Column Row Layer    Maximum-Head-Change  Column Row Layer    Maximum-Flux-Residual          L2-NORM 
          0                 1           2            10   10     2       0.4631009351E-01       4    8    2         0.8369120389E+00      0.3197941835E+01
          0                 2           2             4    8     2      -0.1401863312E-02       4    8    2        -0.3873291253E-01      0.1200562040E+00
          0                 3           1             6   11     2       0.3628165713E-04       6   11    2         0.1080340253E-02      0.2842698372E-02

    ------------------------------------------------
       NWT REQUIRED            3 OUTER ITERATIONS 
       AND A TOTAL OF          5 INNER ITERATIONS.
    ------------------------------------------------

 NO OUTPUT CONTROL FOR STRESS PERIOD    4   TIME STEP    3
 ..........LAKE  1 IS DRY..........
 
 SOLVING FOR HEAD 
                                                   Max.-Head-Change                         Max.-Flux-Residual
  Residual-Control   Outer-Iter.   Inner-Iter.     Column Row Layer    Maximum-Head-Change  Column Row Layer    Maximum-Flux-Residual          L2-NORM 
          0                 1           2             6    3     2       0.1622602275E+00       6    3    2         0.2197514057E+01      0.3973145072E+01
          0                 2           2             6    3     2       0.1067769699E-01       6    3    2         0.1453363152E+00      0.1958098650E+00
          0                 3           1             6    3     2       0.6970067446E-03       6    3    2         0.9495142970E-02      0.1028316340E-01

    ------------------------------------------------
       NWT REQUIRED            3 OUTER ITERATIONS 
       AND A TOTAL OF          5 INNER ITERATIONS.
    ------------------------------------------------

 NO OUTPUT CONTROL FOR STRESS PERIOD    4   TIME STEP    4
 ..........LAKE  1 IS DRY..........
 
 SOLVING FOR HEAD 
                                                   Max.-Head-Change                         Max.-Flux-Residual
  Residual-Control   Outer-Iter.   Inner-Iter.     Column Row Layer    Maximum-Head-Change  Column Row Layer    Maximum-Flux-Residual          L2-NORM 
          0                 1           2             6    3     2       0.1840857547E+00       6    3    2         0.2468281433E+01      0.4787926697E+01
          0                 2           2             6    3     2       0.1184762914E-01       6    3    2         0.1606640463E+00      0.2555310337E+00
          0                 3           1             6    3     2       0.7798128630E-03       6    3    2         0.1059506908E-01      0.1443075830E-01

    ------------------------------------------------
       NWT REQUIRED            3 OUTER ITERATIONS 
       AND A TOTAL OF          5 INNER ITERATIONS.
    ------------------------------------------------

 OUTPUT CONTROL FOR STRESS PERIOD    4   TIME STEP    5
    PRINT BUDGET
    SAVE BUDGET

            WELLS   PERIOD    4   STEP   5
 WELL      1   LAYER   2   ROW     6   COL     4   RATE    -1.00000    
 WELL      2   LAYER   2   ROW     6   COL     5   RATE    -1.00000    
 WELL      3   LAYER   2   ROW     7   COL     4   RATE    -1.00000    
 WELL      4   LAYER   2   ROW     7   COL     5   RATE    -1.00000    
 WELL      5   LAYER   2   ROW     8   COL     4   RATE    -1.00000    
 WELL      6   LAYER   2   ROW     8   COL     5   RATE    -1.00000    
 WELL      7   LAYER   2   ROW     9   COL     4   RATE    -1.00000    
 WELL      8   LAYER   2   ROW     9   COL     5   RATE    -1.00000    
 WELL      9   LAYER   2   ROW    10   COL     4   RATE    -1.00000    
 WELL     10   LAYER   2   ROW    10   COL     5   RATE    -1.00000    

  HEAD DEP BOUNDS   PERIOD    4   STEP     5
 BOUNDARY      1   LAYER   2   ROW    13   COL     1   RATE   -0.291889    
 BOUNDARY      2   LAYER   2   ROW    14   COL     9   RATE    0.214573    



 STREAM LISTING     PERIOD      4   STEP        5

 LAYER ROW COL. STREAM  RCH.  FLOW INTO     FLOW TO   FLOW OUT OF   OVRLND.     DIRECT     STREAM       STREAM     STREAM     STREAM   STREAMBED  STREAMBED
                SEG.NO.  NO.  STRM. RCH.    AQUIFER    STRM. RCH.    RUNOFF     PRECIP       ET          HEAD       DEPTH      WIDTH   CONDCTNC.   GRADIENT

   2    1    1     1     1    2.4000E+01  1.9380E+00   2.2062E+01  0.000E+00  0.000E+00  0.000E+00  1.09420E+03  1.150E+00  1.266E+01  5.698E-01  1.134E+00
   2    2    2     1     2    2.2062E+01  3.4701E+00   1.8592E+01  0.000E+00  0.000E+00  0.000E+00  1.08916E+03  1.106E+00  1.207E+01  8.452E-01  1.369E+00
   2    3    3     1     3    1.8592E+01  2.7105E+00   1.5881E+01  0.000E+00  0.000E+00  0.000E+00  1.08347E+03  1.054E+00  1.114E+01  6.687E-01  1.351E+00
   2    3    4     1     4    1.5881E+01  2.2923E+00   1.3589E+01  0.000E+00  0.000E+00  0.000E+00  1.07841E+03  1.007E+00  1.031E+01  5.721E-01  1.336E+00
   2    4    5     2     1    3.5891E+00  2.5654E+00   1.0236E+00  0.000E+00  0.000E+00  0.000E+00  1.07222E+03  2.890E-01  1.200E+01  7.800E-01  1.096E+00
   2    5    6     2     2    1.0236E+00  1.0236E+00   0.0000E+00  0.000E+00  0.000E+00  0.000E+00  1.06655E+03  3.994E-02  1.200E+01  6.000E-01  1.013E+00
   2    6    6     2     3    0.0000E+00  0.0000E+00   0.0000E+00  0.000E+00  0.000E+00  0.000E+00  1.06179E+03  0.000E+00  1.200E+01  6.000E-01  1.000E+00
   2    7    6     2     4    0.0000E+00  0.0000E+00   0.0000E+00  0.000E+00  0.000E+00  0.000E+00  1.05708E+03  0.000E+00  1.200E+01  6.000E-01  1.000E+00
   2    8    6     2     5    0.0000E+00  0.0000E+00   0.0000E+00  0.000E+00  0.000E+00  0.000E+00  1.05236E+03  0.000E+00  1.200E+01  6.000E-01  1.000E+00
   2    3    5     3     1    1.0000E+01  2.8252E+00   7.1748E+00  0.000E+00  0.000E+00  0.000E+00  1.07555E+03  1.909E+00  9.636E+00  7.227E-01  1.955E+00
   2    3    6     3     2    7.1748E+00  2.4905E+00   4.6843E+00  0.000E+00  0.000E+00  0.000E+00  1.07264E+03  1.727E+00  8.909E+00  6.682E-01  1.864E+00
   2    3    7     3     3    4.6843E+00  1.9718E+00   2.7125E+00  0.000E+00  0.000E+00  0.000E+00  1.06987E+03  1.555E+00  8.218E+00  5.547E-01  1.777E+00
   2    4    8     3     4    2.7125E+00  2.2567E+00   4.5579E-01  0.000E+00  0.000E+00  0.000E+00  1.06682E+03  1.364E+00  7.455E+00  6.709E-01  1.682E+00
   2    5    8     3     5    4.5579E-01  4.5579E-01   0.0000E+00  0.000E+00  0.000E+00  0.000E+00  1.06362E+03  0.000E+00  6.655E+00  4.991E-01  1.582E+00
   2    6    8     3     6    0.0000E+00  0.0000E+00   0.0000E+00  0.000E+00  0.000E+00  0.000E+00  1.06055E+03  0.000E+00  6.145E+00  1.844E-01  1.000E+00
   2    5   10     4     1    1.0000E+01  9.0525E-01   9.0947E+00  0.000E+00  0.000E+00  0.000E+00  1.07835E+03  6.210E-01  1.000E+01  2.500E-01  1.207E+00
   2    5    9     4     2    9.0947E+00  1.7835E+00   7.3113E+00  0.000E+00  0.000E+00  0.000E+00  1.07148E+03  5.670E-01  1.000E+01  5.000E-01  1.189E+00
   2    6    8     4     3    7.3113E+00  1.2257E+00   6.0855E+00  0.000E+00  0.000E+00  0.000E+00  1.06368E+03  5.021E-01  1.000E+01  3.500E-01  1.167E+00
   2    6    8     5     1    6.0855E+00  1.4716E+00   4.6139E+00  0.000E+00  0.000E+00  0.000E+00  1.05854E+03  5.396E-01  1.039E+01  4.158E-01  1.180E+00
   2    7    7     5     2    4.6139E+00  1.4897E+00   3.1242E+00  0.000E+00  0.000E+00  0.000E+00  1.05398E+03  4.817E-01  8.557E+00  4.279E-01  1.161E+00
   2    8    7     5     3    3.1242E+00  8.2855E-01   2.2957E+00  0.000E+00  0.000E+00  0.000E+00  1.04968E+03  4.253E-01  6.911E+00  2.419E-01  1.142E+00
   2    8    6     5     4    2.2957E+00  4.9455E-01   1.8011E+00  0.000E+00  0.000E+00  0.000E+00  1.04664E+03  3.856E-01  5.843E+00  1.461E-01  1.129E+00
   2    9    6     6     1    1.8011E+00  1.8011E+00   0.0000E+00  0.000E+00  0.000E+00  0.000E+00  1.04278E+03  5.669E-02  1.200E+01  6.000E-01  1.019E+00
   2   10    7     6     2    0.0000E+00  0.0000E+00   0.0000E+00  0.000E+00  0.000E+00  0.000E+00  1.03818E+03  0.000E+00  1.200E+01  6.000E-01  1.000E+00
   2   11    7     6     3    0.0000E+00  0.0000E+00   0.0000E+00  0.000E+00  0.000E+00  0.000E+00  1.03364E+03  0.000E+00  1.200E+01  6.000E-01  1.000E+00
   2   12    7     6     4    0.0000E+00  0.0000E+00   0.0000E+00  0.000E+00  0.000E+00  0.000E+00  1.02909E+03  0.000E+00  1.200E+01  6.000E-01  5.361E-01
   2   13    7     6     5    0.0000E+00 -7.5170E-01   7.5170E-01  0.000E+00  0.000E+00  0.000E+00  1.02601E+03  9.840E-02  1.200E+01  2.400E-01 -1.044E+00
   2   14    9     7     1    1.5000E+02  2.8572E+00   1.4714E+02  0.000E+00  0.000E+00  0.000E+00  1.03986E+03  2.284E+00  5.528E+01  5.591E+00  1.703E-01
   2   13    8     7     2    1.4714E+02  3.9051E+00   1.4324E+02  0.000E+00  0.000E+00  0.000E+00  1.03477E+03  2.266E+00  5.520E+01  6.140E+00  2.120E-01
   2   13    7     7     3    1.4324E+02  2.9369E+00   1.4030E+02  0.000E+00  0.000E+00  0.000E+00  1.02967E+03  2.247E+00  5.511E+01  5.573E+00  1.757E-01
   2   13    6     8     1    1.4105E+02  1.0517E+00   1.4000E+02  0.000E+00  0.000E+00  0.000E+00  1.02462E+03  2.749E+00  3.986E+01  4.062E+00  8.631E-02
   2   13    5     8     2    1.4000E+02 -2.2383E+00   1.4224E+02  0.000E+00  0.000E+00  0.000E+00  1.01838E+03  2.753E+00  3.992E+01  4.068E+00 -1.834E-01
   2   13    4     8     3    1.4224E+02 -5.3087E+00   1.4755E+02  0.000E+00  0.000E+00  0.000E+00  1.01216E+03  2.780E+00  4.032E+01  4.108E+00 -4.307E-01
   2   13    3     8     4    1.4755E+02 -6.0471E+00   1.5359E+02  0.000E+00  0.000E+00  0.000E+00  1.00595E+03  2.821E+00  4.090E+01  4.168E+00 -4.836E-01
   2   13    2     8     5    1.5359E+02 -3.5202E+00   1.5712E+02  0.000E+00  0.000E+00  0.000E+00  9.99729E+02  2.854E+00  4.138E+01  4.217E+00 -2.782E-01
   2   13    1     8     6    1.5712E+02 -2.3749E+00   1.5949E+02  0.000E+00  0.000E+00  0.000E+00  9.94749E+02  2.874E+00  4.168E+01  2.548E+00 -3.107E-01
   2    4    5     9     1    0.0000E+00  0.0000E+00   0.0000E+00  0.000E+00  0.000E+00  0.000E+00  1.06000E+03  0.000E+00  2.000E+01  2.000E-03  1.000E+00
   2    4    5    10     1    0.0000E+00  0.0000E+00   0.0000E+00  0.000E+00  0.000E+00  0.000E+00  1.08000E+03  0.000E+00  2.000E+01  2.000E-03  1.000E+00



 ..........LAKE  1 IS DRY..........

     SECTIONS OF THE LAKE BOTTOM HAVE BECOME DRY.  THE DRYSECTIONS
     LIE ABOVE THE FOLLOWING  1 AQUIFER CELLS (LAYER,ROW,COLUMN):
     (  2,  4,  5)  (

 PERIOD     4     TIME STEP     5     TIME STEP LENGTH  1.7520E+05
 PERIOD TIME  8.7600E+05     TOTAL SIMULATION TIME  8.7600E+06


                 HYDROLOGIC BUDGET SUMMARIES FOR SIMULATED LAKES
     (ALL FLUID FLUXES ARE VOLUMES ADDED TO THE LAKE DURING PRESENT TIME STEP)
     ----------------------------------------------------------------------------------------
 LAKE    STAGE         VOLUME     VOL. CHANGE      PRECIP     EVAPORATION    SPECIFIED RUNOFF     COMPUTED RUNOFF    TOTAL RUNOFF
   1  1.074500E+03  0.000000E+00  0.000000E+00  0.000000E+00  0.000000E+00   0.000000E+00          0.000000E+00      0.000000E+00

            GROUND WATER            SURFACE WATER        WATER          UZF INFIL.
 LAKE    INFLOW     OUTFLOW      INFLOW     OUTFLOW       USE        FROM LAKE
   1  0.0000E+00  0.0000E+00  0.0000E+00  0.0000E+00  0.0000E+00       0.0000E+00

      CONNECTED LAKE   TIME-STEP         STAGE-CHANGE          PERCENT
 LAKE    INFLUX      SURFACE AREA   TIME STEP  CUMULATIVE    DISCREPANCY
   1   0.0000E+00     0.0000E+00   0.0000E+00  0.0000E+00       0.000
 --------------------------------------------------------------------------------



            CUMULATIVE HYDROLOGIC BUDGET SUMMARIES FOR SIMULATED LAKES
     (ALL FLUID FLUXES ARE SUMS OF VOLUMES ADDED TO THE LAKE SINCE INITIAL TIME)
     ---------------------------------------------------------------------------
 LAKE       PRECIP       EVAP     SPECIFIED RUNOFF   COMPUTED RUNOFF   TOTAL RUNOFF
   1     0.0000E+00  0.0000E+00       0.0000E+00       0.0000E+00       0.0000E+00

            GROUND WATER            SURFACE WATER       UZF INFIL.
 LAKE    INFLOW     OUTFLOW      INFLOW     OUTFLOW     FROM LAKE
   1  0.0000E+00  0.0000E+00  0.0000E+00  0.0000E+00    0.0000E+00

         WATER    CONNECTED LAKE   CHANGE       PERCENT
 LAKE     USE         INFLUX       IN VOL.    DISCREPANCY
   1   0.0000E+00   0.0000E+00   0.0000E+00      0.000
 --------------------------------------------------------------------------------

 UBDSV3 SAVING "           GW ET" ON UNIT  61 AT TIME STEP 5, STRESS PERIOD 4
 UBDSV3 SAVING "    UZF RECHARGE" ON UNIT  61 AT TIME STEP 5, STRESS PERIOD 4
 UBDSV3 SAVING " SURFACE LEAKAGE" ON UNIT  61 AT TIME STEP 5, STRESS PERIOD 4
 UBDSV3 SAVING "       HORT+DUNN" ON UNIT  61 AT TIME STEP 5, STRESS PERIOD 4
 UBDSV3 SAVING "  STORAGE CHANGE" ON UNIT  61 AT TIME STEP 5, STRESS PERIOD 4


UNSATURATED ZONE PACKAGE VOLUMETRIC BUDGET FOR  TIME STEP     5 STRESS PERIOD    4
  ------------------------------------------------------------------------------



     CUMULATIVE VOLUMES      L**3       RATES FOR THIS TIME STEP      L**3/T
     ------------------                 ------------------------

           IN:                                      IN:
           ---                                      ---
        INFILTRATION =   549983460.0000          INFILTRATION =         169.0000

          OUT:                                     OUT:
          ----                                     ----
              UZF ET =   578047537.4818                UZF ET =          65.5411
        UZF RECHARGE =   202338492.6953          UZF RECHARGE =          29.5077

            IN - OUT =  -230402570.1771              IN - OUT =          73.9513

          STORAGE:                                 STORAGE:
          --------                                 --------
      STORAGE CHANGE =  -230305409.4780        STORAGE CHANGE =          73.9728

 PERCENT DISCREPANCY IS DIFFERENCE BETWEEN IN-OUT MINUS CHANGE IN STORAGE
 DIVIDED BY THE AVERAGE OF IN AND OUT TIMES 100

 PERCENT DISCREPANCY =          -0.00     PERCENT DISCREPANCY =          -0.01






1
  VOLUMETRIC BUDGET FOR ENTIRE MODEL AT END OF TIME STEP    5, STRESS PERIOD   4
  ------------------------------------------------------------------------------

     CUMULATIVE VOLUMES      L**3       RATES FOR THIS TIME STEP      L**3/T
     ------------------                 ------------------------

           IN:                                      IN:
           ---                                      ---
             STORAGE     =    10167500.0000               STORAGE     =           0.3187
       CONSTANT HEAD     =           0.0000         CONSTANT HEAD     =           0.0000
               WELLS     =           0.0000                 WELLS     =           0.0000
     HEAD DEP BOUNDS     =     1883145.1250       HEAD DEP BOUNDS     =           0.2146
      STREAM LEAKAGE     =   412921920.0000        STREAM LEAKAGE     =          44.7508
       LAKE  SEEPAGE     =           0.0000         LAKE  SEEPAGE     =           0.0000
        UZF RECHARGE     =   202338480.0000          UZF RECHARGE     =          29.5077
               GW ET     =           0.0000                 GW ET     =           0.0000
     SURFACE LEAKAGE     =           0.0000       SURFACE LEAKAGE     =           0.0000

                TOTAL IN =   627311040.0000                  TOTAL IN =          74.7918

          OUT:                                     OUT:
          ----                                     ----
             STORAGE     =   214538496.0000               STORAGE     =          31.5291
       CONSTANT HEAD     =           0.0000         CONSTANT HEAD     =           0.0000
               WELLS     =   140160000.0000                 WELLS     =          10.0000
     HEAD DEP BOUNDS     =     2527543.5000       HEAD DEP BOUNDS     =           0.2919
      STREAM LEAKAGE     =   160995024.0000        STREAM LEAKAGE     =          20.2409
       LAKE  SEEPAGE     =           0.0000         LAKE  SEEPAGE     =           0.0000
        UZF RECHARGE     =           0.0000          UZF RECHARGE     =           0.0000
               GW ET     =   109083144.0000                 GW ET     =          12.7284
     SURFACE LEAKAGE     =           0.0000       SURFACE LEAKAGE     =           0.0000

               TOTAL OUT =   627304192.0000                 TOTAL OUT =          74.7903

                IN - OUT =        6848.0000                  IN - OUT =       1.4496E-03

     PERCENT DISCREPANCY =           0.00         PERCENT DISCREPANCY =           0.00






         TIME SUMMARY AT END OF TIME STEP    5 IN STRESS PERIOD    4
                    SECONDS     MINUTES      HOURS       DAYS        YEARS
                    -----------------------------------------------------------
   TIME STEP LENGTH 1.75200E+05  2920.0      48.667      2.0278     5.55175E-03
 STRESS PERIOD TIME 8.76000E+05  14600.      243.33      10.139     2.77588E-02
         TOTAL TIME 8.76000E+06 1.46000E+05  2433.3      101.39     0.27759    
1
 
 SOLVING FOR HEAD 
                                                   Max.-Head-Change                         Max.-Flux-Residual
  Residual-Control   Outer-Iter.   Inner-Iter.     Column Row Layer    Maximum-Head-Change  Column Row Layer    Maximum-Flux-Residual          L2-NORM 
          0                 1           2             6    3     2       0.1769330715E+00       6    3    2         0.2386523593E+01      0.4658607148E+01
          0                 2           2             6    3     2       0.1174722035E-01       6    3    2         0.1594450411E+00      0.2529913659E+00
          0                 3           1             6    3     2       0.7721676232E-03       6    3    2         0.1049219773E-01      0.1428440893E-01

    ------------------------------------------------
       NWT REQUIRED            3 OUTER ITERATIONS 
       AND A TOTAL OF          5 INNER ITERATIONS.
    ------------------------------------------------

 NO OUTPUT CONTROL FOR STRESS PERIOD    4   TIME STEP    6
 ..........LAKE  1 IS DRY..........
 
 SOLVING FOR HEAD 
                                                   Max.-Head-Change                         Max.-Flux-Residual
  Residual-Control   Outer-Iter.   Inner-Iter.     Column Row Layer    Maximum-Head-Change  Column Row Layer    Maximum-Flux-Residual          L2-NORM 
          0                 1           2             6    3     2       0.1704214845E+00       6    3    2         0.2298262872E+01      0.4521310995E+01
          0                 2           2             6    3     2       0.1131313334E-01       6    3    2         0.1536224915E+00      0.2464815804E+00
          0                 3           1             6    3     2       0.7430848164E-03       6    3    2         0.1009918095E-01      0.1376054459E-01

    ------------------------------------------------
       NWT REQUIRED            3 OUTER ITERATIONS 
       AND A TOTAL OF          5 INNER ITERATIONS.
    ------------------------------------------------

 NO OUTPUT CONTROL FOR STRESS PERIOD    4   TIME STEP    7
 ..........LAKE  1 IS DRY..........
 
 SOLVING FOR HEAD 
                                                   Max.-Head-Change                         Max.-Flux-Residual
  Residual-Control   Outer-Iter.   Inner-Iter.     Column Row Layer    Maximum-Head-Change  Column Row Layer    Maximum-Flux-Residual          L2-NORM 
          0                 1           2             6    3     2       0.1641943567E+00       6    3    2         0.2213471224E+01      0.4438370068E+01
          0                 2           2             6    3     2       0.1090100065E-01       6    3    2         0.1480930192E+00      0.2416695274E+00
          0                 3           1             6    3     2       0.7155087425E-03       6    3    2         0.9726234968E-02      0.1327602390E-01

    ------------------------------------------------
       NWT REQUIRED            3 OUTER ITERATIONS 
       AND A TOTAL OF          5 INNER ITERATIONS.
    ------------------------------------------------

 NO OUTPUT CONTROL FOR STRESS PERIOD    4   TIME STEP    8
 ..........LAKE  1 IS DRY..........
 
 SOLVING FOR HEAD 
                                                   Max.-Head-Change                         Max.-Flux-Residual
  Residual-Control   Outer-Iter.   Inner-Iter.     Column Row Layer    Maximum-Head-Change  Column Row Layer    Maximum-Flux-Residual          L2-NORM 
          0                 1           2             6    3     2       0.1582416591E+00       6    3    2         0.2132437194E+01      0.4301018386E+01
          0                 2           2             6    3     2       0.1050669218E-01       6    3    2         0.1428041599E+00      0.2347145255E+00
          0                 3           1             6    3     2       0.6891561271E-03       6    3    2         0.9369379639E-02      0.1281209650E-01

    ------------------------------------------------
       NWT REQUIRED            3 OUTER ITERATIONS 
       AND A TOTAL OF          5 INNER ITERATIONS.
    ------------------------------------------------

 NO OUTPUT CONTROL FOR STRESS PERIOD    4   TIME STEP    9
 ..........LAKE  1 IS DRY..........
 
 SOLVING FOR HEAD 
                                                   Max.-Head-Change                         Max.-Flux-Residual
  Residual-Control   Outer-Iter.   Inner-Iter.     Column Row Layer    Maximum-Head-Change  Column Row Layer    Maximum-Flux-Residual          L2-NORM 
          0                 1           2             6    3     2       0.1528027987E+00       6    3    2         0.2054973916E+01      0.4236444983E+01
          0                 2           2             6    3     2       0.1018582161E-01       6    3    2         0.1383164250E+00      0.2295005953E+00
          0                 3           1             6    3     2       0.6690891073E-03       6    3    2         0.9095683560E-02      0.1245884715E-01

    ------------------------------------------------
       NWT REQUIRED            3 OUTER ITERATIONS 
       AND A TOTAL OF          5 INNER ITERATIONS.
    ------------------------------------------------

 OUTPUT CONTROL FOR STRESS PERIOD    4   TIME STEP   10
    PRINT BUDGET
    SAVE BUDGET

            WELLS   PERIOD    4   STEP  10
 WELL      1   LAYER   2   ROW     6   COL     4   RATE    -1.00000    
 WELL      2   LAYER   2   ROW     6   COL     5   RATE    -1.00000    
 WELL      3   LAYER   2   ROW     7   COL     4   RATE    -1.00000    
 WELL      4   LAYER   2   ROW     7   COL     5   RATE    -1.00000    
 WELL      5   LAYER   2   ROW     8   COL     4   RATE    -1.00000    
 WELL      6   LAYER   2   ROW     8   COL     5   RATE    -1.00000    
 WELL      7   LAYER   2   ROW     9   COL     4   RATE    -1.00000    
 WELL      8   LAYER   2   ROW     9   COL     5   RATE    -1.00000    
 WELL      9   LAYER   2   ROW    10   COL     4   RATE    -1.00000    
 WELL     10   LAYER   2   ROW    10   COL     5   RATE    -1.00000    

  HEAD DEP BOUNDS   PERIOD    4   STEP    10
 BOUNDARY      1   LAYER   2   ROW    13   COL     1   RATE   -0.293002    
 BOUNDARY      2   LAYER   2   ROW    14   COL     9   RATE    0.214488    



 STREAM LISTING     PERIOD      4   STEP       10

 LAYER ROW COL. STREAM  RCH.  FLOW INTO     FLOW TO   FLOW OUT OF   OVRLND.     DIRECT     STREAM       STREAM     STREAM     STREAM   STREAMBED  STREAMBED
                SEG.NO.  NO.  STRM. RCH.    AQUIFER    STRM. RCH.    RUNOFF     PRECIP       ET          HEAD       DEPTH      WIDTH   CONDCTNC.   GRADIENT

   2    1    1     1     1    2.5000E+01  1.9805E+00   2.3019E+01  0.000E+00  0.000E+00  0.000E+00  1.09421E+03  1.165E+00  1.286E+01  5.788E-01  1.140E+00
   2    2    2     1     2    2.3019E+01  3.5424E+00   1.9477E+01  0.000E+00  0.000E+00  0.000E+00  1.08918E+03  1.121E+00  1.228E+01  8.596E-01  1.374E+00
   2    3    3     1     3    1.9477E+01  2.7861E+00   1.6691E+01  0.000E+00  0.000E+00  0.000E+00  1.08349E+03  1.068E+00  1.141E+01  6.848E-01  1.356E+00
   2    3    4     1     4    1.6691E+01  2.3604E+00   1.4331E+01  0.000E+00  0.000E+00  0.000E+00  1.07843E+03  1.022E+00  1.057E+01  5.869E-01  1.341E+00
   2    4    5     2     1    4.3306E+00  2.6054E+00   1.7251E+00  0.000E+00  0.000E+00  0.000E+00  1.07227E+03  3.403E-01  1.200E+01  7.800E-01  1.113E+00
   2    5    6     2     2    1.7251E+00  1.7251E+00   0.0000E+00  0.000E+00  0.000E+00  0.000E+00  1.06656E+03  5.463E-02  1.200E+01  6.000E-01  1.018E+00
   2    6    6     2     3    0.0000E+00  0.0000E+00   0.0000E+00  0.000E+00  0.000E+00  0.000E+00  1.06179E+03  0.000E+00  1.200E+01  6.000E-01  1.000E+00
   2    7    6     2     4    0.0000E+00  0.0000E+00   0.0000E+00  0.000E+00  0.000E+00  0.000E+00  1.05708E+03  0.000E+00  1.200E+01  6.000E-01  1.000E+00
   2    8    6     2     5    0.0000E+00  0.0000E+00   0.0000E+00  0.000E+00  0.000E+00  0.000E+00  1.05236E+03  0.000E+00  1.200E+01  6.000E-01  1.000E+00
   2    3    5     3     1    1.0000E+01  2.8252E+00   7.1748E+00  0.000E+00  0.000E+00  0.000E+00  1.07555E+03  1.909E+00  9.636E+00  7.227E-01  1.955E+00
   2    3    6     3     2    7.1748E+00  2.4905E+00   4.6843E+00  0.000E+00  0.000E+00  0.000E+00  1.07264E+03  1.727E+00  8.909E+00  6.682E-01  1.864E+00
   2    3    7     3     3    4.6843E+00  1.9718E+00   2.7125E+00  0.000E+00  0.000E+00  0.000E+00  1.06987E+03  1.555E+00  8.218E+00  5.547E-01  1.777E+00
   2    4    8     3     4    2.7125E+00  2.2567E+00   4.5579E-01  0.000E+00  0.000E+00  0.000E+00  1.06682E+03  1.364E+00  7.455E+00  6.709E-01  1.682E+00
   2    5    8     3     5    4.5579E-01  4.5579E-01   0.0000E+00  0.000E+00  0.000E+00  0.000E+00  1.06362E+03  0.000E+00  6.655E+00  4.991E-01  1.582E+00
   2    6    8     3     6    0.0000E+00  0.0000E+00   0.0000E+00  0.000E+00  0.000E+00  0.000E+00  1.06055E+03  0.000E+00  6.145E+00  1.844E-01  1.000E+00
   2    5   10     4     1    1.0000E+01  9.0525E-01   9.0947E+00  0.000E+00  0.000E+00  0.000E+00  1.07835E+03  6.210E-01  1.000E+01  2.500E-01  1.207E+00
   2    5    9     4     2    9.0947E+00  1.7835E+00   7.3113E+00  0.000E+00  0.000E+00  0.000E+00  1.07148E+03  5.670E-01  1.000E+01  5.000E-01  1.189E+00
   2    6    8     4     3    7.3113E+00  1.2257E+00   6.0855E+00  0.000E+00  0.000E+00  0.000E+00  1.06368E+03  5.021E-01  1.000E+01  3.500E-01  1.167E+00
   2    6    8     5     1    6.0855E+00  1.4716E+00   4.6139E+00  0.000E+00  0.000E+00  0.000E+00  1.05854E+03  5.396E-01  1.039E+01  4.158E-01  1.180E+00
   2    7    7     5     2    4.6139E+00  1.4897E+00   3.1242E+00  0.000E+00  0.000E+00  0.000E+00  1.05398E+03  4.817E-01  8.557E+00  4.279E-01  1.161E+00
   2    8    7     5     3    3.1242E+00  8.2855E-01   2.2957E+00  0.000E+00  0.000E+00  0.000E+00  1.04968E+03  4.253E-01  6.911E+00  2.419E-01  1.142E+00
   2    8    6     5     4    2.2957E+00  4.9455E-01   1.8011E+00  0.000E+00  0.000E+00  0.000E+00  1.04664E+03  3.856E-01  5.843E+00  1.461E-01  1.129E+00
   2    9    6     6     1    1.8011E+00  1.8011E+00   0.0000E+00  0.000E+00  0.000E+00  0.000E+00  1.04278E+03  5.669E-02  1.200E+01  6.000E-01  1.019E+00
   2   10    7     6     2    0.0000E+00  0.0000E+00   0.0000E+00  0.000E+00  0.000E+00  0.000E+00  1.03818E+03  0.000E+00  1.200E+01  6.000E-01  1.000E+00
   2   11    7     6     3    0.0000E+00  0.0000E+00   0.0000E+00  0.000E+00  0.000E+00  0.000E+00  1.03364E+03  0.000E+00  1.200E+01  6.000E-01  1.000E+00
   2   12    7     6     4    0.0000E+00  0.0000E+00   0.0000E+00  0.000E+00  0.000E+00  0.000E+00  1.02909E+03  0.000E+00  1.200E+01  6.000E-01  5.293E-01
   2   13    7     6     5    0.0000E+00 -7.5955E-01   7.5955E-01  0.000E+00  0.000E+00  0.000E+00  1.02601E+03  9.901E-02  1.200E+01  2.400E-01 -1.055E+00
   2   14    9     7     1    1.5000E+02  2.8448E+00   1.4716E+02  0.000E+00  0.000E+00  0.000E+00  1.03986E+03  2.284E+00  5.528E+01  5.591E+00  1.696E-01
   2   13    8     7     2    1.4716E+02  3.8735E+00   1.4328E+02  0.000E+00  0.000E+00  0.000E+00  1.03477E+03  2.266E+00  5.520E+01  6.140E+00  2.103E-01
   2   13    7     7     3    1.4328E+02  2.7553E+00   1.4053E+02  0.000E+00  0.000E+00  0.000E+00  1.02967E+03  2.248E+00  5.512E+01  5.573E+00  1.648E-01
   2   13    6     8     1    1.4129E+02  8.8558E-01   1.4040E+02  0.000E+00  0.000E+00  0.000E+00  1.02463E+03  2.751E+00  3.989E+01  4.065E+00  7.262E-02
   2   13    5     8     2    1.4040E+02 -2.3659E+00   1.4277E+02  0.000E+00  0.000E+00  0.000E+00  1.01838E+03  2.756E+00  3.997E+01  4.073E+00 -1.936E-01
   2   13    4     8     3    1.4277E+02 -5.4276E+00   1.4819E+02  0.000E+00  0.000E+00  0.000E+00  1.01216E+03  2.785E+00  4.038E+01  4.115E+00 -4.397E-01
   2   13    3     8     4    1.4819E+02 -6.1515E+00   1.5435E+02  0.000E+00  0.000E+00  0.000E+00  1.00595E+03  2.826E+00  4.097E+01  4.175E+00 -4.911E-01
   2   13    2     8     5    1.5435E+02 -3.5667E+00   1.5791E+02  0.000E+00  0.000E+00  0.000E+00  9.99734E+02  2.859E+00  4.146E+01  4.225E+00 -2.814E-01
   2   13    1     8     6    1.5791E+02 -2.4399E+00   1.6035E+02  0.000E+00  0.000E+00  0.000E+00  9.94755E+02  2.880E+00  4.176E+01  2.553E+00 -3.185E-01
   2    4    5     9     1    0.0000E+00  0.0000E+00   0.0000E+00  0.000E+00  0.000E+00  0.000E+00  1.06000E+03  0.000E+00  2.000E+01  2.000E-03  1.000E+00
   2    4    5    10     1    0.0000E+00  0.0000E+00   0.0000E+00  0.000E+00  0.000E+00  0.000E+00  1.08000E+03  0.000E+00  2.000E+01  2.000E-03  1.000E+00



 ..........LAKE  1 IS DRY..........

     SECTIONS OF THE LAKE BOTTOM HAVE BECOME DRY.  THE DRYSECTIONS
     LIE ABOVE THE FOLLOWING  1 AQUIFER CELLS (LAYER,ROW,COLUMN):
     (  2,  4,  5)  (

 PERIOD     4     TIME STEP    10     TIME STEP LENGTH  1.7520E+05
 PERIOD TIME  1.7520E+06     TOTAL SIMULATION TIME  9.6360E+06


                 HYDROLOGIC BUDGET SUMMARIES FOR SIMULATED LAKES
     (ALL FLUID FLUXES ARE VOLUMES ADDED TO THE LAKE DURING PRESENT TIME STEP)
     ----------------------------------------------------------------------------------------
 LAKE    STAGE         VOLUME     VOL. CHANGE      PRECIP     EVAPORATION    SPECIFIED RUNOFF     COMPUTED RUNOFF    TOTAL RUNOFF
   1  1.074500E+03  0.000000E+00  0.000000E+00  0.000000E+00  0.000000E+00   0.000000E+00          0.000000E+00      0.000000E+00

            GROUND WATER            SURFACE WATER        WATER          UZF INFIL.
 LAKE    INFLOW     OUTFLOW      INFLOW     OUTFLOW       USE        FROM LAKE
   1  0.0000E+00  0.0000E+00  0.0000E+00  0.0000E+00  0.0000E+00       0.0000E+00

      CONNECTED LAKE   TIME-STEP         STAGE-CHANGE          PERCENT
 LAKE    INFLUX      SURFACE AREA   TIME STEP  CUMULATIVE    DISCREPANCY
   1   0.0000E+00     0.0000E+00   0.0000E+00  0.0000E+00       0.000
 --------------------------------------------------------------------------------



            CUMULATIVE HYDROLOGIC BUDGET SUMMARIES FOR SIMULATED LAKES
     (ALL FLUID FLUXES ARE SUMS OF VOLUMES ADDED TO THE LAKE SINCE INITIAL TIME)
     ---------------------------------------------------------------------------
 LAKE       PRECIP       EVAP     SPECIFIED RUNOFF   COMPUTED RUNOFF   TOTAL RUNOFF
   1     0.0000E+00  0.0000E+00       0.0000E+00       0.0000E+00       0.0000E+00

            GROUND WATER            SURFACE WATER       UZF INFIL.
 LAKE    INFLOW     OUTFLOW      INFLOW     OUTFLOW     FROM LAKE
   1  0.0000E+00  0.0000E+00  0.0000E+00  0.0000E+00    0.0000E+00

         WATER    CONNECTED LAKE   CHANGE       PERCENT
 LAKE     USE         INFLUX       IN VOL.    DISCREPANCY
   1   0.0000E+00   0.0000E+00   0.0000E+00      0.000
 --------------------------------------------------------------------------------

 UBDSV3 SAVING "           GW ET" ON UNIT  61 AT TIME STEP 10, STRESS PERIOD 4
 UBDSV3 SAVING "    UZF RECHARGE" ON UNIT  61 AT TIME STEP 10, STRESS PERIOD 4
 UBDSV3 SAVING " SURFACE LEAKAGE" ON UNIT  61 AT TIME STEP 10, STRESS PERIOD 4
 UBDSV3 SAVING "       HORT+DUNN" ON UNIT  61 AT TIME STEP 10, STRESS PERIOD 4
 UBDSV3 SAVING "  STORAGE CHANGE" ON UNIT  61 AT TIME STEP 10, STRESS PERIOD 4


UNSATURATED ZONE PACKAGE VOLUMETRIC BUDGET FOR  TIME STEP    10 STRESS PERIOD    4
  ------------------------------------------------------------------------------



     CUMULATIVE VOLUMES      L**3       RATES FOR THIS TIME STEP      L**3/T
     ------------------                 ------------------------

           IN:                                      IN:
           ---                                      ---
        INFILTRATION =   698027460.0000          INFILTRATION =         169.0000

          OUT:                                     OUT:
          ----                                     ----
              UZF ET =   639186581.3999                UZF ET =          72.4702
        UZF RECHARGE =   227036183.3011          UZF RECHARGE =          27.8285

            IN - OUT =  -168195304.7010              IN - OUT =          68.7014

          STORAGE:                                 STORAGE:
          --------                                 --------
      STORAGE CHANGE =  -168078024.7666        STORAGE CHANGE =          68.7135

 PERCENT DISCREPANCY IS DIFFERENCE BETWEEN IN-OUT MINUS CHANGE IN STORAGE
 DIVIDED BY THE AVERAGE OF IN AND OUT TIMES 100

 PERCENT DISCREPANCY =          -0.00     PERCENT DISCREPANCY =          -0.01






1
  VOLUMETRIC BUDGET FOR ENTIRE MODEL AT END OF TIME STEP   10, STRESS PERIOD   4
  ------------------------------------------------------------------------------

     CUMULATIVE VOLUMES      L**3       RATES FOR THIS TIME STEP      L**3/T
     ------------------                 ------------------------

           IN:                                      IN:
           ---                                      ---
             STORAGE     =    10377314.0000               STORAGE     =           0.2115
       CONSTANT HEAD     =           0.0000         CONSTANT HEAD     =           0.0000
               WELLS     =           0.0000                 WELLS     =           0.0000
     HEAD DEP BOUNDS     =     2071074.1250       HEAD DEP BOUNDS     =           0.2145
      STREAM LEAKAGE     =   452511936.0000        STREAM LEAKAGE     =          45.3591
       LAKE  SEEPAGE     =           0.0000         LAKE  SEEPAGE     =           0.0000
        UZF RECHARGE     =   227036176.0000          UZF RECHARGE     =          27.8285
               GW ET     =           0.0000                 GW ET     =           0.0000
     SURFACE LEAKAGE     =           0.0000       SURFACE LEAKAGE     =           0.0000

                TOTAL IN =   691996480.0000                  TOTAL IN =          73.6135

          OUT:                                     OUT:
          ----                                     ----
             STORAGE     =   241102176.0000               STORAGE     =          29.9893
       CONSTANT HEAD     =           0.0000         CONSTANT HEAD     =           0.0000
               WELLS     =   148920000.0000                 WELLS     =          10.0000
     HEAD DEP BOUNDS     =     2783861.5000       HEAD DEP BOUNDS     =           0.2930
      STREAM LEAKAGE     =   178989168.0000        STREAM LEAKAGE     =          20.7111
       LAKE  SEEPAGE     =           0.0000         LAKE  SEEPAGE     =           0.0000
        UZF RECHARGE     =           0.0000          UZF RECHARGE     =           0.0000
               GW ET     =   120193328.0000                 GW ET     =          12.6189
     SURFACE LEAKAGE     =           0.0000       SURFACE LEAKAGE     =           0.0000

               TOTAL OUT =   691988544.0000                 TOTAL OUT =          73.6123

                IN - OUT =        7936.0000                  IN - OUT =       1.1673E-03

     PERCENT DISCREPANCY =           0.00         PERCENT DISCREPANCY =           0.00






         TIME SUMMARY AT END OF TIME STEP   10 IN STRESS PERIOD    4
                    SECONDS     MINUTES      HOURS       DAYS        YEARS
                    -----------------------------------------------------------
   TIME STEP LENGTH 1.75200E+05  2920.0      48.667      2.0278     5.55175E-03
 STRESS PERIOD TIME 1.75200E+06  29200.      486.67      20.278     5.55175E-02
         TOTAL TIME 9.63600E+06 1.60600E+05  2676.7      111.53     0.30535    
1
 
 SOLVING FOR HEAD 
                                                   Max.-Head-Change                         Max.-Flux-Residual
  Residual-Control   Outer-Iter.   Inner-Iter.     Column Row Layer    Maximum-Head-Change  Column Row Layer    Maximum-Flux-Residual          L2-NORM 
          0                 1           2             6    3     2       0.1478541058E+00       6    3    2         0.1984730321E+01      0.4238640562E+01
          0                 2           2             6    3     2       0.9883066542E-02       6    3    2         0.1342093537E+00      0.2252265177E+00
          0                 3           1             6    3     2       0.6492585558E-03       6    3    2         0.8825987356E-02      0.1210439863E-01

    ------------------------------------------------
       NWT REQUIRED            3 OUTER ITERATIONS 
       AND A TOTAL OF          5 INNER ITERATIONS.
    ------------------------------------------------

 NO OUTPUT CONTROL FOR STRESS PERIOD    4   TIME STEP   11
 ..........LAKE  1 IS DRY..........
 
 SOLVING FOR HEAD 
                                                   Max.-Head-Change                         Max.-Flux-Residual
  Residual-Control   Outer-Iter.   Inner-Iter.     Column Row Layer    Maximum-Head-Change  Column Row Layer    Maximum-Flux-Residual          L2-NORM 
          0                 1           2             6    2     2       0.2138881618E+00       6    2    2         0.2789096082E+01      0.5562109341E+01
          0                 2           2             6    2     2       0.1415774195E-01       6    2    2         0.1845668289E+00      0.3399751700E+00
          0                 3           1             6    2     2       0.9377283705E-03       6    2    2         0.1222268428E-01      0.2084918701E-01

    ------------------------------------------------
       NWT REQUIRED            3 OUTER ITERATIONS 
       AND A TOTAL OF          5 INNER ITERATIONS.
    ------------------------------------------------

 NO OUTPUT CONTROL FOR STRESS PERIOD    4   TIME STEP   12
 ..........LAKE  1 IS DRY..........
 
 SOLVING FOR HEAD 
                                                   Max.-Head-Change                         Max.-Flux-Residual
  Residual-Control   Outer-Iter.   Inner-Iter.     Column Row Layer    Maximum-Head-Change  Column Row Layer    Maximum-Flux-Residual          L2-NORM 
          0                 1           2             6    2     2       0.2220862721E+00       6    2    2         0.2897406275E+01      0.5596134061E+01
          0                 2           2             6    2     2       0.1474485907E-01       6    2    2         0.1923213186E+00      0.3448886596E+00
          0                 3           1             6    2     2       0.1022072031E-02       6    2    2         0.1333386279E-01      0.2193089518E-01
          0                 4           1             6    2     2       0.7081086983E-04       6    2    2         0.9240008464E-03      0.1463065660E-02

    ------------------------------------------------
       NWT REQUIRED            4 OUTER ITERATIONS 
       AND A TOTAL OF          6 INNER ITERATIONS.
    ------------------------------------------------

 NO OUTPUT CONTROL FOR STRESS PERIOD    4   TIME STEP   13
 ..........LAKE  1 IS DRY..........
 
 SOLVING FOR HEAD 
                                                   Max.-Head-Change                         Max.-Flux-Residual
  Residual-Control   Outer-Iter.   Inner-Iter.     Column Row Layer    Maximum-Head-Change  Column Row Layer    Maximum-Flux-Residual          L2-NORM 
          0                 1           2             6    2     2       0.2208712154E+00       6    2    2         0.2881945092E+01      0.5655889564E+01
          0                 2           2             6    2     2       0.1526120597E-01       6    2    2         0.1991407775E+00      0.3523990105E+00
          0                 3           1             6    2     2       0.1008580500E-02       6    2    2         0.1315645060E-01      0.2187306432E-01
          0                 4           1             6    2     2       0.6669748609E-04       6    2    2         0.8699199926E-03      0.1406163779E-02

    ------------------------------------------------
       NWT REQUIRED            4 OUTER ITERATIONS 
       AND A TOTAL OF          6 INNER ITERATIONS.
    ------------------------------------------------

 NO OUTPUT CONTROL FOR STRESS PERIOD    4   TIME STEP   14
 ..........LAKE  1 IS DRY..........
 
 SOLVING FOR HEAD 
                                                   Max.-Head-Change                         Max.-Flux-Residual
  Residual-Control   Outer-Iter.   Inner-Iter.     Column Row Layer    Maximum-Head-Change  Column Row Layer    Maximum-Flux-Residual          L2-NORM 
          0                 1           2             6    2     2       0.2196212709E+00       6    2    2         0.2866018971E+01      0.5585549291E+01
          0                 2           2             6    2     2       0.1451443136E-01       6    2    2         0.1892963007E+00      0.3418665603E+00
          0                 3           1             6    2     2       0.9606957732E-03       6    2    2         0.1252266652E-01      0.2109099296E-01

    ------------------------------------------------
       NWT REQUIRED            3 OUTER ITERATIONS 
       AND A TOTAL OF          5 INNER ITERATIONS.
    ------------------------------------------------

 OUTPUT CONTROL FOR STRESS PERIOD    4   TIME STEP   15
    PRINT BUDGET
    PRINT HEAD FOR ALL LAYERS
    SAVE HEAD FOR ALL LAYERS
    SAVE BUDGET

            WELLS   PERIOD    4   STEP  15
 WELL      1   LAYER   2   ROW     6   COL     4   RATE    -1.00000    
 WELL      2   LAYER   2   ROW     6   COL     5   RATE    -1.00000    
 WELL      3   LAYER   2   ROW     7   COL     4   RATE    -1.00000    
 WELL      4   LAYER   2   ROW     7   COL     5   RATE    -1.00000    
 WELL      5   LAYER   2   ROW     8   COL     4   RATE    -1.00000    
 WELL      6   LAYER   2   ROW     8   COL     5   RATE    -1.00000    
 WELL      7   LAYER   2   ROW     9   COL     4   RATE    -1.00000    
 WELL      8   LAYER   2   ROW     9   COL     5   RATE    -1.00000    
 WELL      9   LAYER   2   ROW    10   COL     4   RATE    -1.00000    
 WELL     10   LAYER   2   ROW    10   COL     5   RATE    -1.00000    

  HEAD DEP BOUNDS   PERIOD    4   STEP    15
 BOUNDARY      1   LAYER   2   ROW    13   COL     1   RATE   -0.293745    
 BOUNDARY      2   LAYER   2   ROW    14   COL     9   RATE    0.214321    



 STREAM LISTING     PERIOD      4   STEP       15

 LAYER ROW COL. STREAM  RCH.  FLOW INTO     FLOW TO   FLOW OUT OF   OVRLND.     DIRECT     STREAM       STREAM     STREAM     STREAM   STREAMBED  STREAMBED
                SEG.NO.  NO.  STRM. RCH.    AQUIFER    STRM. RCH.    RUNOFF     PRECIP       ET          HEAD       DEPTH      WIDTH   CONDCTNC.   GRADIENT

   2    1    1     1     1    2.1000E+01  1.8258E+00   1.9174E+01  0.000E+00  0.000E+00  0.000E+00  1.09415E+03  1.102E+00  1.202E+01  5.409E-01  1.125E+00
   2    2    2     1     2    1.9174E+01  3.1977E+00   1.5976E+01  0.000E+00  0.000E+00  0.000E+00  1.08912E+03  1.060E+00  1.125E+01  7.877E-01  1.353E+00
   2    3    3     1     3    1.5976E+01  2.4784E+00   1.3498E+01  0.000E+00  0.000E+00  0.000E+00  1.08343E+03  1.007E+00  1.031E+01  6.185E-01  1.336E+00
   2    3    4     1     4    1.3498E+01  2.0834E+00   1.1415E+01  0.000E+00  0.000E+00  0.000E+00  1.07837E+03  9.591E-01  9.481E+00  5.262E-01  1.320E+00
   2    4    5     2     1    1.4147E+00  1.4147E+00   0.0000E+00  0.000E+00  0.000E+00  0.000E+00  1.07198E+03  4.850E-02  1.200E+01  7.800E-01  1.016E+00
   2    5    6     2     2    0.0000E+00  0.0000E+00   0.0000E+00  0.000E+00  0.000E+00  0.000E+00  1.06651E+03  0.000E+00  1.200E+01  6.000E-01  1.000E+00
   2    6    6     2     3    0.0000E+00  0.0000E+00   0.0000E+00  0.000E+00  0.000E+00  0.000E+00  1.06179E+03  0.000E+00  1.200E+01  6.000E-01  1.000E+00
   2    7    6     2     4    0.0000E+00  0.0000E+00   0.0000E+00  0.000E+00  0.000E+00  0.000E+00  1.05708E+03  0.000E+00  1.200E+01  6.000E-01  1.000E+00
   2    8    6     2     5    0.0000E+00  0.0000E+00   0.0000E+00  0.000E+00  0.000E+00  0.000E+00  1.05236E+03  0.000E+00  1.200E+01  6.000E-01  1.000E+00
   2    3    5     3     1    1.0000E+01  2.8252E+00   7.1748E+00  0.000E+00  0.000E+00  0.000E+00  1.07555E+03  1.909E+00  9.636E+00  7.227E-01  1.955E+00
   2    3    6     3     2    7.1748E+00  2.4905E+00   4.6843E+00  0.000E+00  0.000E+00  0.000E+00  1.07264E+03  1.727E+00  8.909E+00  6.682E-01  1.864E+00
   2    3    7     3     3    4.6843E+00  1.9718E+00   2.7125E+00  0.000E+00  0.000E+00  0.000E+00  1.06987E+03  1.555E+00  8.218E+00  5.547E-01  1.777E+00
   2    4    8     3     4    2.7125E+00  2.2567E+00   4.5579E-01  0.000E+00  0.000E+00  0.000E+00  1.06682E+03  1.364E+00  7.455E+00  6.709E-01  1.682E+00
   2    5    8     3     5    4.5579E-01  4.5579E-01   0.0000E+00  0.000E+00  0.000E+00  0.000E+00  1.06362E+03  0.000E+00  6.655E+00  4.991E-01  1.582E+00
   2    6    8     3     6    0.0000E+00  0.0000E+00   0.0000E+00  0.000E+00  0.000E+00  0.000E+00  1.06055E+03  0.000E+00  6.145E+00  1.844E-01  1.000E+00
   2    5   10     4     1    1.0000E+01  9.0525E-01   9.0947E+00  0.000E+00  0.000E+00  0.000E+00  1.07835E+03  6.210E-01  1.000E+01  2.500E-01  1.207E+00
   2    5    9     4     2    9.0947E+00  1.7835E+00   7.3113E+00  0.000E+00  0.000E+00  0.000E+00  1.07148E+03  5.670E-01  1.000E+01  5.000E-01  1.189E+00
   2    6    8     4     3    7.3113E+00  1.2257E+00   6.0855E+00  0.000E+00  0.000E+00  0.000E+00  1.06368E+03  5.021E-01  1.000E+01  3.500E-01  1.167E+00
   2    6    8     5     1    6.0855E+00  1.4716E+00   4.6139E+00  0.000E+00  0.000E+00  0.000E+00  1.05854E+03  5.396E-01  1.039E+01  4.158E-01  1.180E+00
   2    7    7     5     2    4.6139E+00  1.4897E+00   3.1242E+00  0.000E+00  0.000E+00  0.000E+00  1.05398E+03  4.817E-01  8.557E+00  4.279E-01  1.161E+00
   2    8    7     5     3    3.1242E+00  8.2855E-01   2.2957E+00  0.000E+00  0.000E+00  0.000E+00  1.04968E+03  4.253E-01  6.911E+00  2.419E-01  1.142E+00
   2    8    6     5     4    2.2957E+00  4.9455E-01   1.8011E+00  0.000E+00  0.000E+00  0.000E+00  1.04664E+03  3.856E-01  5.843E+00  1.461E-01  1.129E+00
   2    9    6     6     1    1.8011E+00  1.8011E+00   0.0000E+00  0.000E+00  0.000E+00  0.000E+00  1.04278E+03  5.669E-02  1.200E+01  6.000E-01  1.019E+00
   2   10    7     6     2    0.0000E+00  0.0000E+00   0.0000E+00  0.000E+00  0.000E+00  0.000E+00  1.03818E+03  0.000E+00  1.200E+01  6.000E-01  1.000E+00
   2   11    7     6     3    0.0000E+00  0.0000E+00   0.0000E+00  0.000E+00  0.000E+00  0.000E+00  1.03364E+03  0.000E+00  1.200E+01  6.000E-01  1.000E+00
   2   12    7     6     4    0.0000E+00  0.0000E+00   0.0000E+00  0.000E+00  0.000E+00  0.000E+00  1.02909E+03  0.000E+00  1.200E+01  6.000E-01  5.206E-01
   2   13    7     6     5    0.0000E+00 -7.6291E-01   7.6291E-01  0.000E+00  0.000E+00  0.000E+00  1.02601E+03  9.927E-02  1.200E+01  2.400E-01 -1.060E+00
   2   14    9     7     1    1.5000E+02  2.8206E+00   1.4718E+02  0.000E+00  0.000E+00  0.000E+00  1.03986E+03  2.284E+00  5.528E+01  5.591E+00  1.682E-01
   2   13    8     7     2    1.4718E+02  3.7893E+00   1.4339E+02  0.000E+00  0.000E+00  0.000E+00  1.03477E+03  2.266E+00  5.520E+01  6.141E+00  2.057E-01
   2   13    7     7     3    1.4339E+02  2.6804E+00   1.4071E+02  0.000E+00  0.000E+00  0.000E+00  1.02967E+03  2.249E+00  5.512E+01  5.574E+00  1.603E-01
   2   13    6     8     1    1.4147E+02  8.0922E-01   1.4066E+02  0.000E+00  0.000E+00  0.000E+00  1.02463E+03  2.753E+00  3.991E+01  4.067E+00  6.632E-02
   2   13    5     8     2    1.4066E+02 -2.4369E+00   1.4310E+02  0.000E+00  0.000E+00  0.000E+00  1.01838E+03  2.759E+00  4.000E+01  4.076E+00 -1.993E-01
   2   13    4     8     3    1.4310E+02 -5.4938E+00   1.4859E+02  0.000E+00  0.000E+00  0.000E+00  1.01216E+03  2.787E+00  4.042E+01  4.119E+00 -4.446E-01
   2   13    3     8     4    1.4859E+02 -6.2119E+00   1.5481E+02  0.000E+00  0.000E+00  0.000E+00  1.00595E+03  2.829E+00  4.102E+01  4.180E+00 -4.954E-01
   2   13    2     8     5    1.5481E+02 -3.7168E+00   1.5852E+02  0.000E+00  0.000E+00  0.000E+00  9.99738E+02  2.863E+00  4.152E+01  4.231E+00 -2.929E-01
   2   13    1     8     6    1.5852E+02 -2.4826E+00   1.6101E+02  0.000E+00  0.000E+00  0.000E+00  9.94759E+02  2.884E+00  4.182E+01  2.557E+00 -3.236E-01
   2    4    5     9     1    0.0000E+00  0.0000E+00   0.0000E+00  0.000E+00  0.000E+00  0.000E+00  1.06000E+03  0.000E+00  2.000E+01  2.000E-03  1.000E+00
   2    4    5    10     1    0.0000E+00  0.0000E+00   0.0000E+00  0.000E+00  0.000E+00  0.000E+00  1.08000E+03  0.000E+00  2.000E+01  2.000E-03  1.000E+00



 ..........LAKE  1 IS DRY..........

     SECTIONS OF THE LAKE BOTTOM HAVE BECOME DRY.  THE DRYSECTIONS
     LIE ABOVE THE FOLLOWING  1 AQUIFER CELLS (LAYER,ROW,COLUMN):
     (  2,  4,  5)  (

 PERIOD     4     TIME STEP    15     TIME STEP LENGTH  1.7520E+05
 PERIOD TIME  2.6280E+06     TOTAL SIMULATION TIME  1.0512E+07


                 HYDROLOGIC BUDGET SUMMARIES FOR SIMULATED LAKES
     (ALL FLUID FLUXES ARE VOLUMES ADDED TO THE LAKE DURING PRESENT TIME STEP)
     ----------------------------------------------------------------------------------------
 LAKE    STAGE         VOLUME     VOL. CHANGE      PRECIP     EVAPORATION    SPECIFIED RUNOFF     COMPUTED RUNOFF    TOTAL RUNOFF
   1  1.074500E+03  0.000000E+00  0.000000E+00  0.000000E+00  0.000000E+00   0.000000E+00          0.000000E+00      0.000000E+00

            GROUND WATER            SURFACE WATER        WATER          UZF INFIL.
 LAKE    INFLOW     OUTFLOW      INFLOW     OUTFLOW       USE        FROM LAKE
   1  0.0000E+00  0.0000E+00  0.0000E+00  0.0000E+00  0.0000E+00       0.0000E+00

      CONNECTED LAKE   TIME-STEP         STAGE-CHANGE          PERCENT
 LAKE    INFLUX      SURFACE AREA   TIME STEP  CUMULATIVE    DISCREPANCY
   1   0.0000E+00     0.0000E+00   0.0000E+00  0.0000E+00       0.000
 --------------------------------------------------------------------------------



            CUMULATIVE HYDROLOGIC BUDGET SUMMARIES FOR SIMULATED LAKES
     (ALL FLUID FLUXES ARE SUMS OF VOLUMES ADDED TO THE LAKE SINCE INITIAL TIME)
     ---------------------------------------------------------------------------
 LAKE       PRECIP       EVAP     SPECIFIED RUNOFF   COMPUTED RUNOFF   TOTAL RUNOFF
   1     0.0000E+00  0.0000E+00       0.0000E+00       0.0000E+00       0.0000E+00

            GROUND WATER            SURFACE WATER       UZF INFIL.
 LAKE    INFLOW     OUTFLOW      INFLOW     OUTFLOW     FROM LAKE
   1  0.0000E+00  0.0000E+00  0.0000E+00  0.0000E+00    0.0000E+00

         WATER    CONNECTED LAKE   CHANGE       PERCENT
 LAKE     USE         INFLUX       IN VOL.    DISCREPANCY
   1   0.0000E+00   0.0000E+00   0.0000E+00      0.000
 --------------------------------------------------------------------------------

 UBDSV3 SAVING "           GW ET" ON UNIT  61 AT TIME STEP 15, STRESS PERIOD 4
 UBDSV3 SAVING "    UZF RECHARGE" ON UNIT  61 AT TIME STEP 15, STRESS PERIOD 4
 UBDSV3 SAVING " SURFACE LEAKAGE" ON UNIT  61 AT TIME STEP 15, STRESS PERIOD 4
 UBDSV3 SAVING "       HORT+DUNN" ON UNIT  61 AT TIME STEP 15, STRESS PERIOD 4
 UBDSV3 SAVING "  STORAGE CHANGE" ON UNIT  61 AT TIME STEP 15, STRESS PERIOD 4


UNSATURATED ZONE PACKAGE VOLUMETRIC BUDGET FOR  TIME STEP    15 STRESS PERIOD    4
  ------------------------------------------------------------------------------



     CUMULATIVE VOLUMES      L**3       RATES FOR THIS TIME STEP      L**3/T
     ------------------                 ------------------------

           IN:                                      IN:
           ---                                      ---
        INFILTRATION =   846071460.0000          INFILTRATION =         169.0000

          OUT:                                     OUT:
          ----                                     ----
              UZF ET =   704963468.0863                UZF ET =          76.7195
        UZF RECHARGE =   255085087.4401          UZF RECHARGE =          33.2556

            IN - OUT =  -113977095.5264              IN - OUT =          59.0248

          STORAGE:                                 STORAGE:
          --------                                 --------
      STORAGE CHANGE =  -113848386.8203        STORAGE CHANGE =          59.0430

 PERCENT DISCREPANCY IS DIFFERENCE BETWEEN IN-OUT MINUS CHANGE IN STORAGE
 DIVIDED BY THE AVERAGE OF IN AND OUT TIMES 100

 PERCENT DISCREPANCY =          -0.00     PERCENT DISCREPANCY =          -0.01






1
              HEAD IN LAYER 1 AT END OF TIME STEP 15 IN STRESS PERIOD 4
  ---------------------------------------------------------------------------

           1       2       3       4       5       6       7       8       9      10
 ...................................................................................
   1  6999.00 6999.00 6999.00 6999.00 6999.00 6999.00 6999.00 6999.00 6999.00 6999.00
   2  6999.00 6999.00 6999.00 6999.00 6999.00 6999.00 6999.00 6999.00 6999.00 6999.00
   3  6999.00 6999.00 6999.00 6999.00 6999.00 6999.00 6999.00 6999.00 6999.00 6999.00
   4  6999.00 6999.00 6999.00 6999.00 6999.00 6999.00 6999.00 6999.00 6999.00 6999.00
   5  6999.00 6999.00 6999.00 6999.00 6999.00 6999.00 6999.00 6999.00 6999.00 6999.00
   6  6999.00 6999.00 6999.00 6999.00 6999.00 6999.00 6999.00 6999.00 6999.00 6999.00
   7  6999.00 6999.00 6999.00 6999.00 6999.00 6999.00 6999.00 6999.00 6999.00 6999.00
   8  6999.00 6999.00 6999.00 6999.00 6999.00 6999.00 6999.00 6999.00 6999.00 6999.00
   9  6999.00 6999.00 6999.00 6999.00 6999.00 6999.00 6999.00 6999.00 6999.00 6999.00
  10  6999.00 6999.00 6999.00 6999.00 6999.00 6999.00 6999.00 6999.00 6999.00 6999.00
  11  6999.00 6999.00 6999.00 6999.00 6999.00 6999.00 6999.00 6999.00 6999.00 6999.00
  12  6999.00 6999.00 6999.00 6999.00 6999.00 6999.00 6999.00 6999.00 6999.00 6999.00
  13  6999.00 6999.00 6999.00 6999.00 6999.00 6999.00 6999.00 6999.00 6999.00 6999.00
  14  6999.00 6999.00 6999.00 6999.00 6999.00 6999.00 6999.00 6999.00 6999.00 6999.00
  15  6999.00 6999.00 6999.00 6999.00 6999.00 6999.00 6999.00 6999.00 6999.00 6999.00
1
              HEAD IN LAYER 2 AT END OF TIME STEP 15 IN STRESS PERIOD 4
  ---------------------------------------------------------------------------

           1       2       3       4       5       6       7       8       9      10
 ...................................................................................
   1  1090.77 1085.46 6999.00 6999.00 6999.00 6999.00 6999.00 6999.00 6999.00 6999.00
   2  1085.74 1079.56 1072.73 6999.00 6999.00 1064.44 1064.41 1063.27 6999.00 6999.00
   3  6999.00 1069.24 1065.51 1061.75 1063.93 1065.02 1064.72 1062.12 6999.00 6999.00
   4  1058.17 1060.17 1058.66 1055.52 1054.42 1053.60 1055.04 1059.10 1058.02 6999.00
   5  1054.09 1053.30 1051.64 1049.88 1049.56 1049.66 1049.87 1051.65 1055.12 1057.33
   6  1049.92 1048.07 1046.04 1044.77 1044.85 1045.89 1047.20 1049.42 1052.21 1056.50
   7  1046.95 1043.24 1041.11 1040.15 1040.59 1042.02 1043.99 1046.27 1048.99 6999.00
   8  6999.00 1038.04 1036.52 1035.85 1036.42 1037.97 1039.65 1042.82 1044.41 6999.00
   9  6999.00 1032.38 1031.61 1031.41 1032.20 1033.98 1035.03 1037.16 1039.67 6999.00
  10  6999.00 1026.66 1026.66 1027.21 1028.35 1030.07 1031.15 1033.04 1035.77 1036.48
  11  6999.00 1019.61 1020.46 1023.14 1025.07 1027.17 1028.77 1030.94 1034.20 6999.00
  12  1003.09 1009.50 1013.68 1018.10 1021.64 1025.01 1027.53 1030.71 1034.59 6999.00
  13   995.73 1000.62 1007.44 1013.50 1018.98 1024.43 1029.19 1034.15 1036.70 6999.00
  14  6999.00 1006.68 1010.00 1014.80 1019.79 1024.65 1029.92 1035.13 1039.36 6999.00
  15  6999.00 6999.00 1014.66 1017.48 1021.17 1024.44 6999.00 6999.00 6999.00 6999.00

 HEAD WILL BE SAVED ON UNIT   58 AT END OF TIME STEP   15, STRESS PERIOD    4
1
  VOLUMETRIC BUDGET FOR ENTIRE MODEL AT END OF TIME STEP   15, STRESS PERIOD   4
  ------------------------------------------------------------------------------

     CUMULATIVE VOLUMES      L**3       RATES FOR THIS TIME STEP      L**3/T
     ------------------                 ------------------------

           IN:                                      IN:
           ---                                      ---
             STORAGE     =    11354544.0000               STORAGE     =           1.7616
       CONSTANT HEAD     =           0.0000         CONSTANT HEAD     =           0.0000
               WELLS     =           0.0000                 WELLS     =           0.0000
     HEAD DEP BOUNDS     =     2258881.0000       HEAD DEP BOUNDS     =           0.2143
      STREAM LEAKAGE     =   489991648.0000        STREAM LEAKAGE     =          41.0995
       LAKE  SEEPAGE     =           0.0000         LAKE  SEEPAGE     =           0.0000
        UZF RECHARGE     =   255085088.0000          UZF RECHARGE     =          33.2556
               GW ET     =           0.0000                 GW ET     =           0.0000
     SURFACE LEAKAGE     =           0.0000       SURFACE LEAKAGE     =           0.0000

                TOTAL IN =   758690176.0000                  TOTAL IN =          76.3311

          OUT:                                     OUT:
          ----                                     ----
             STORAGE     =   269416704.0000               STORAGE     =          32.4161
       CONSTANT HEAD     =           0.0000         CONSTANT HEAD     =           0.0000
               WELLS     =   157680000.0000                 WELLS     =          10.0000
     HEAD DEP BOUNDS     =     3040940.7500       HEAD DEP BOUNDS     =           0.2937
      STREAM LEAKAGE     =   197356640.0000        STREAM LEAKAGE     =          21.1049
       LAKE  SEEPAGE     =           0.0000         LAKE  SEEPAGE     =           0.0000
        UZF RECHARGE     =           0.0000          UZF RECHARGE     =           0.0000
               GW ET     =   131186616.0000                 GW ET     =          12.5135
     SURFACE LEAKAGE     =           0.0000       SURFACE LEAKAGE     =           0.0000

               TOTAL OUT =   758680896.0000                 TOTAL OUT =          76.3283

                IN - OUT =        9280.0000                  IN - OUT =       2.7924E-03

     PERCENT DISCREPANCY =           0.00         PERCENT DISCREPANCY =           0.00






         TIME SUMMARY AT END OF TIME STEP   15 IN STRESS PERIOD    4
                    SECONDS     MINUTES      HOURS       DAYS        YEARS
                    -----------------------------------------------------------
   TIME STEP LENGTH 1.75200E+05  2920.0      48.667      2.0278     5.55175E-03
 STRESS PERIOD TIME 2.62800E+06  43800.      730.00      30.417     8.32763E-02
         TOTAL TIME 1.05120E+07 1.75200E+05  2920.0      121.67     0.33311    
1
1
                            STRESS PERIOD NO.    5, LENGTH =   2628000.    
                            -----------------------------------------------

                              NUMBER OF TIME STEPS =    15

                               MULTIPLIER FOR DELT =     1.000

                            INITIAL TIME STEP SIZE =   175200.0    

 WELL NO.  LAYER   ROW   COL   STRESS RATE         
 --------------------------------------------------
      1      2      6      4      -3.000    
      2      2      6      5      -3.000    
      3      2      7      4      -3.000    
      4      2      7      5      -3.000    
      5      2      8      4      -3.000    
      6      2      8      5      -3.000    
      7      2      9      4      -3.000    
      8      2      9      5      -3.000    
      9      2     10      4      -3.000    
     10      2     10      5      -3.000    

     10 WELLS

 REUSING NON-PARAMETER GHB CELLS FROM LAST STRESS PERIOD

      2 GHB CELLS

 REUSING STREAM SEGMENT DATA FROM LAST STRESS PERIOD



            AREAL INFILTRATION RATE
 READING ON UNIT   19 WITH FORMAT: (10F4.0)            

            1           2           3           4           5           6           7           8           9          10
 ........................................................................................................................
   1   5.0000E-09  1.0000E-08   0.000       0.000       0.000       0.000       0.000       0.000       0.000       0.000    
   2   1.0000E-08  5.0000E-09  1.0000E-08   0.000       0.000      4.0000E-08  4.0000E-08  2.5000E-08   0.000       0.000    
   3    0.000      2.5000E-08  5.0000E-09  5.0000E-09  4.0000E-08  4.0000E-08  2.5000E-08  2.5000E-08   0.000       0.000    
   4   4.0000E-08  2.5000E-08  5.0000E-09  5.0000E-09  5.0000E-09  5.0000E-09  5.0000E-09  5.0000E-09  1.0000E-08   0.000    
   5   4.0000E-08  2.5000E-08  5.0000E-09  5.0000E-09  5.0000E-09  5.0000E-09  5.0000E-09  5.0000E-09  5.0000E-09  5.0000E-09
   6   4.0000E-08  2.5000E-08  2.5000E-08  1.0000E-08  1.0000E-08  5.0000E-09  5.0000E-09  5.0000E-09  5.0000E-09  2.5000E-08
   7   4.0000E-08  2.5000E-08  2.5000E-08  1.0000E-08  1.0000E-08  5.0000E-09  5.0000E-09  1.0000E-08  1.0000E-08   0.000    
   8    0.000      2.5000E-08  2.5000E-08  1.0000E-08  1.0000E-08  5.0000E-09  5.0000E-09  1.0000E-08  2.5000E-08   0.000    
   9    0.000      2.5000E-08  2.5000E-08  1.0000E-08  1.0000E-08  5.0000E-09  5.0000E-09  1.0000E-08  2.5000E-08   0.000    
  10    0.000      2.5000E-08  2.5000E-08  1.0000E-08  1.0000E-08  5.0000E-09  5.0000E-09  1.0000E-08  2.5000E-08  4.0000E-08
  11    0.000      5.0000E-09  5.0000E-09  5.0000E-09  5.0000E-09  5.0000E-09  5.0000E-09  1.0000E-08  2.5000E-08   0.000    
  12   5.0000E-09  5.0000E-09  5.0000E-09  5.0000E-09  5.0000E-09  5.0000E-09  5.0000E-09  5.0000E-09  1.0000E-08   0.000    
  13   5.0000E-09  5.0000E-09  1.0000E-08  1.0000E-08  1.0000E-08  1.0000E-08  1.0000E-08  5.0000E-09  5.0000E-09   0.000    
  14    0.000      1.0000E-08  2.5000E-08  2.5000E-08  2.5000E-08  2.5000E-08  2.5000E-08  1.0000E-08  5.0000E-09   0.000    
  15    0.000       0.000      4.0000E-08  4.0000E-08  4.0000E-08  4.0000E-08   0.000       0.000       0.000       0.000    

USING ET RATE FROM PREVIOUS STRESS PERIOD. CURRENT PERIOD IS:       5

 USING ET EXTINCTION DEPTH FROM PREVIOUS STRESS PERIOD. CURRENT PERIOD IS:       5

 USING EXTINCTION WATER CONTENT FROM PREVIOUS STRESS PERIOD. CURRENT PERIOD IS:       5




 If any subsequent steady-state stress periods, min. and max. stages for each lake will be read in Record 9a.




 REUSING LAKE CONFIGURATION DATA FROM LAST STRESS PERIOD


 LAKE       PRECIP     EVAP     RUNOFF   WITHDRAW   BOTTOM     AREA
----------------------------------------------------------------------
   1     0.000E+00 4.000E-08 0.000E+00  0.000E+00 1.074E+03 2.500E+07




         C               INTERFACE CONDUCTANCES BETWEEN LAKE AND AQUIFER CELLS
   L     O          (IF TYPE = 6, CONDUCTANCE (L^2/T) IS BETWEEN AQUIFER CELL AND OVERLYING LAKE CELL.)
   A     L  L  T    (IF TYPE = 1 TO 4, CONDUCTANCES ARE PER UNIT SATURATED THICKNESS (L/T).)
   Y  R  U  A  Y
   E  O  M  K  P                        LAKEBED      C O N D U C T A N C E S
   R  W  N  E  E     DELTA Y   DELTA X  LEAKANCE   LAKEBED   AQUIFER  COMBINED
 _______________________________________________________________________________
   1  4  4  1  2    5.00E+03  5.00E+03  5.00E-02  2.50E+02  6.00E-03  6.00E-03
   1  3  5  1  3    5.00E+03  5.00E+03  5.00E-02  2.50E+02  1.20E-03  1.20E-03
   2  4  5  1  6    5.00E+03  5.00E+03  5.00E-02  1.25E+06  9.42E+00  9.42E+00
   1  5  5  1  4    5.00E+03  5.00E+03  5.00E-02  2.50E+02  6.00E-03  6.00E-03
   1  4  6  1  1    5.00E+03  5.00E+03  5.00E-02  2.50E+02  6.00E-03  6.00E-03
 
      DEAD POOL STORAGE FOR LAKE    1 BELOW SEGMENT   10 IS EQUAL TO     0.1200000000E+09
 
      LAKE     INFLOWING STREAM SEGMENT
         1                  9

 MAXIMUM NUMBER OF STREAMS INFLOWING TO A LAKE IS    1

      LAKE     OUTFLOWING STREAM SEGMENT
         1                 10

 MAXIMUM NUMBER OF STREAMS OUTFLOWING FROM A LAKE IS    1

 
 SOLVING FOR HEAD 
                                                   Max.-Head-Change                         Max.-Flux-Residual
  Residual-Control   Outer-Iter.   Inner-Iter.     Column Row Layer    Maximum-Head-Change  Column Row Layer    Maximum-Flux-Residual          L2-NORM 
          0                 1           2             6    2     2       0.2183598839E+00       6    2    2         0.2849941261E+01      0.7114107508E+01
          0                 2           2             6    2     2       0.1442642085E-01       6    2    2         0.1881706192E+00      0.4556816858E+00
          0                 3           1             6    2     2       0.9545849847E-03       6    2    2         0.1244451816E-01      0.2809820779E-01

    ------------------------------------------------
       NWT REQUIRED            3 OUTER ITERATIONS 
       AND A TOTAL OF          5 INNER ITERATIONS.
    ------------------------------------------------

 NO OUTPUT CONTROL FOR STRESS PERIOD    5   TIME STEP    1
 ..........LAKE  1 IS DRY..........
 
 SOLVING FOR HEAD 
                                                   Max.-Head-Change                         Max.-Flux-Residual
  Residual-Control   Outer-Iter.   Inner-Iter.     Column Row Layer    Maximum-Head-Change  Column Row Layer    Maximum-Flux-Residual          L2-NORM 
          0                 1           2             6    2     2       0.2170622627E+00       6    2    2         0.2833516559E+01      0.6879970215E+01
          0                 2           2             6    2     2       0.1433413536E-01       6    2    2         0.1870011165E+00      0.4725458349E+00
          0                 3           1             6    2     2       0.9480413477E-03       6    2    2         0.1236148805E-01      0.2915545849E-01

    ------------------------------------------------
       NWT REQUIRED            3 OUTER ITERATIONS 
       AND A TOTAL OF          5 INNER ITERATIONS.
    ------------------------------------------------

 NO OUTPUT CONTROL FOR STRESS PERIOD    5   TIME STEP    2
 ..........LAKE  1 IS DRY..........
 
 SOLVING FOR HEAD 
                                                   Max.-Head-Change                         Max.-Flux-Residual
  Residual-Control   Outer-Iter.   Inner-Iter.     Column Row Layer    Maximum-Head-Change  Column Row Layer    Maximum-Flux-Residual          L2-NORM 
          0                 1           2             6    2     2       0.2148212282E+00       6    2    2         0.2816593766E+01      0.8106649878E+01
          0                 2           2             6    2     2       0.1401888645E-01       6    2    2         0.1838387355E+00      0.5455967639E+00
          0                 3           1             6    2     2       0.9144016993E-03       6    2    2         0.1199460397E-01      0.3020419716E-01

    ------------------------------------------------
       NWT REQUIRED            3 OUTER ITERATIONS 
       AND A TOTAL OF          5 INNER ITERATIONS.
    ------------------------------------------------

 NO OUTPUT CONTROL FOR STRESS PERIOD    5   TIME STEP    3
 ..........LAKE  1 IS DRY..........
 
 SOLVING FOR HEAD 
                                                   Max.-Head-Change                         Max.-Flux-Residual
  Residual-Control   Outer-Iter.   Inner-Iter.     Column Row Layer    Maximum-Head-Change  Column Row Layer    Maximum-Flux-Residual          L2-NORM 
          0                 1           2             6    2     2       0.2115683660E+00       6    2    2         0.2785178312E+01      0.8460552385E+01
          0                 2           2             6    2     2       0.1381031034E-01       7   10    2        -0.2080620521E+00      0.6050043800E+00
          0                 3           1             6    2     2       0.9116162126E-03       7   10    2         0.1243789454E-01      0.3418127191E-01

    ------------------------------------------------
       NWT REQUIRED            3 OUTER ITERATIONS 
       AND A TOTAL OF          5 INNER ITERATIONS.
    ------------------------------------------------

 NO OUTPUT CONTROL FOR STRESS PERIOD    5   TIME STEP    4
 ..........LAKE  1 IS DRY..........
 
 SOLVING FOR HEAD 
                                                   Max.-Head-Change                         Max.-Flux-Residual
  Residual-Control   Outer-Iter.   Inner-Iter.     Column Row Layer    Maximum-Head-Change  Column Row Layer    Maximum-Flux-Residual          L2-NORM 
          0                 1           2             6    2     2       0.2099267529E+00       6    2    2         0.2743206873E+01      0.9214907555E+01
          0                 2           2             6    2     2       0.1383015081E-01       7   10    2        -0.1923139165E+00      0.6515645362E+00
          0                 3           1             6    2     2       0.9127054191E-03       6    2    2         0.1191489502E-01      0.3831156235E-01

    ------------------------------------------------
       NWT REQUIRED            3 OUTER ITERATIONS 
       AND A TOTAL OF          5 INNER ITERATIONS.
    ------------------------------------------------

 OUTPUT CONTROL FOR STRESS PERIOD    5   TIME STEP    5
    PRINT BUDGET
    SAVE BUDGET

            WELLS   PERIOD    5   STEP   5
 WELL      1   LAYER   2   ROW     6   COL     4   RATE    -3.00000    
 WELL      2   LAYER   2   ROW     6   COL     5   RATE    -3.00000    
 WELL      3   LAYER   2   ROW     7   COL     4   RATE    -3.00000    
 WELL      4   LAYER   2   ROW     7   COL     5   RATE    -3.00000    
 WELL      5   LAYER   2   ROW     8   COL     4   RATE    -3.00000    
 WELL      6   LAYER   2   ROW     8   COL     5   RATE    -3.00000    
 WELL      7   LAYER   2   ROW     9   COL     4   RATE    -3.00000    
 WELL      8   LAYER   2   ROW     9   COL     5   RATE    -3.00000    
 WELL      9   LAYER   2   ROW    10   COL     4   RATE    -3.00000    
 WELL     10   LAYER   2   ROW    10   COL     5   RATE    -3.00000    

  HEAD DEP BOUNDS   PERIOD    5   STEP     5
 BOUNDARY      1   LAYER   2   ROW    13   COL     1   RATE   -0.292933    
 BOUNDARY      2   LAYER   2   ROW    14   COL     9   RATE    0.214125    



 STREAM LISTING     PERIOD      5   STEP        5

 LAYER ROW COL. STREAM  RCH.  FLOW INTO     FLOW TO   FLOW OUT OF   OVRLND.     DIRECT     STREAM       STREAM     STREAM     STREAM   STREAMBED  STREAMBED
                SEG.NO.  NO.  STRM. RCH.    AQUIFER    STRM. RCH.    RUNOFF     PRECIP       ET          HEAD       DEPTH      WIDTH   CONDCTNC.   GRADIENT

   2    1    1     1     1    3.9000E+01  2.4453E+00   3.6555E+01  0.000E+00  0.000E+00  0.000E+00  1.09436E+03  1.316E+00  1.528E+01  6.877E-01  1.185E+00
   2    2    2     1     2    3.6555E+01  4.4239E+00   3.2131E+01  0.000E+00  0.000E+00  0.000E+00  1.08935E+03  1.288E+00  1.474E+01  1.032E+00  1.429E+00
   2    3    3     1     3    3.2131E+01  3.5878E+00   2.8543E+01  0.000E+00  0.000E+00  0.000E+00  1.08367E+03  1.253E+00  1.406E+01  8.436E-01  1.418E+00
   2    3    4     1     4    2.8543E+01  3.1406E+00   2.5402E+01  0.000E+00  0.000E+00  0.000E+00  1.07862E+03  1.209E+00  1.345E+01  7.462E-01  1.403E+00
   2    4    5     2     1    1.5402E+01  3.0023E+00   1.2400E+01  0.000E+00  0.000E+00  0.000E+00  1.07278E+03  8.491E-01  1.200E+01  7.800E-01  1.283E+00
   2    5    6     2     2    1.2400E+01  2.2493E+00   1.0151E+01  0.000E+00  0.000E+00  0.000E+00  1.06726E+03  7.489E-01  1.200E+01  6.000E-01  1.250E+00
   2    6    6     2     3    1.0151E+01  2.1939E+00   7.9569E+00  0.000E+00  0.000E+00  0.000E+00  1.06245E+03  6.565E-01  1.200E+01  6.000E-01  1.219E+00
   2    7    6     2     4    7.9569E+00  2.1344E+00   5.8225E+00  0.000E+00  0.000E+00  0.000E+00  1.05763E+03  5.573E-01  1.200E+01  6.000E-01  1.186E+00
   2    8    6     2     5    5.8225E+00  2.0688E+00   3.7537E+00  0.000E+00  0.000E+00  0.000E+00  1.05281E+03  4.480E-01  1.200E+01  6.000E-01  1.149E+00
   2    3    5     3     1    1.0000E+01  2.8252E+00   7.1748E+00  0.000E+00  0.000E+00  0.000E+00  1.07555E+03  1.909E+00  9.636E+00  7.227E-01  1.955E+00
   2    3    6     3     2    7.1748E+00  2.4905E+00   4.6843E+00  0.000E+00  0.000E+00  0.000E+00  1.07264E+03  1.727E+00  8.909E+00  6.682E-01  1.864E+00
   2    3    7     3     3    4.6843E+00  1.9718E+00   2.7125E+00  0.000E+00  0.000E+00  0.000E+00  1.06987E+03  1.555E+00  8.218E+00  5.547E-01  1.777E+00
   2    4    8     3     4    2.7125E+00  2.2567E+00   4.5579E-01  0.000E+00  0.000E+00  0.000E+00  1.06682E+03  1.364E+00  7.455E+00  6.709E-01  1.682E+00
   2    5    8     3     5    4.5579E-01  4.5579E-01   0.0000E+00  0.000E+00  0.000E+00  0.000E+00  1.06362E+03  0.000E+00  6.655E+00  4.991E-01  1.582E+00
   2    6    8     3     6    0.0000E+00  0.0000E+00   0.0000E+00  0.000E+00  0.000E+00  0.000E+00  1.06055E+03  0.000E+00  6.145E+00  1.844E-01  1.000E+00
   2    5   10     4     1    1.0000E+01  9.0525E-01   9.0947E+00  0.000E+00  0.000E+00  0.000E+00  1.07835E+03  6.210E-01  1.000E+01  2.500E-01  1.207E+00
   2    5    9     4     2    9.0947E+00  1.7835E+00   7.3113E+00  0.000E+00  0.000E+00  0.000E+00  1.07148E+03  5.670E-01  1.000E+01  5.000E-01  1.189E+00
   2    6    8     4     3    7.3113E+00  1.2257E+00   6.0855E+00  0.000E+00  0.000E+00  0.000E+00  1.06368E+03  5.021E-01  1.000E+01  3.500E-01  1.167E+00
   2    6    8     5     1    6.0855E+00  1.4716E+00   4.6139E+00  0.000E+00  0.000E+00  0.000E+00  1.05854E+03  5.396E-01  1.039E+01  4.158E-01  1.180E+00
   2    7    7     5     2    4.6139E+00  1.4897E+00   3.1242E+00  0.000E+00  0.000E+00  0.000E+00  1.05398E+03  4.817E-01  8.557E+00  4.279E-01  1.161E+00
   2    8    7     5     3    3.1242E+00  8.2855E-01   2.2957E+00  0.000E+00  0.000E+00  0.000E+00  1.04968E+03  4.253E-01  6.911E+00  2.419E-01  1.142E+00
   2    8    6     5     4    2.2957E+00  4.9455E-01   1.8011E+00  0.000E+00  0.000E+00  0.000E+00  1.04664E+03  3.856E-01  5.843E+00  1.461E-01  1.129E+00
   2    9    6     6     1    5.5548E+00  2.0627E+00   3.4922E+00  0.000E+00  0.000E+00  0.000E+00  1.04317E+03  4.378E-01  1.200E+01  6.000E-01  1.146E+00
   2   10    7     6     2    3.4922E+00  1.9840E+00   1.5081E+00  0.000E+00  0.000E+00  0.000E+00  1.03849E+03  3.067E-01  1.200E+01  6.000E-01  1.102E+00
   2   11    7     6     3    1.5081E+00  1.5081E+00   0.0000E+00  0.000E+00  0.000E+00  0.000E+00  1.03369E+03  5.096E-02  1.200E+01  6.000E-01  1.017E+00
   2   12    7     6     4    0.0000E+00  0.0000E+00   0.0000E+00  0.000E+00  0.000E+00  0.000E+00  1.02909E+03  0.000E+00  1.200E+01  6.000E-01  5.093E-01
   2   13    7     6     5    0.0000E+00 -7.6010E-01   7.6010E-01  0.000E+00  0.000E+00  0.000E+00  1.02601E+03  9.905E-02  1.200E+01  2.400E-01 -1.056E+00
   2   14    9     7     1    1.5000E+02  2.7923E+00   1.4721E+02  0.000E+00  0.000E+00  0.000E+00  1.03986E+03  2.284E+00  5.528E+01  5.591E+00  1.665E-01
   2   13    8     7     2    1.4721E+02  3.6758E+00   1.4353E+02  0.000E+00  0.000E+00  0.000E+00  1.03477E+03  2.267E+00  5.520E+01  6.141E+00  1.995E-01
   2   13    7     7     3    1.4353E+02  2.7504E+00   1.4078E+02  0.000E+00  0.000E+00  0.000E+00  1.02967E+03  2.249E+00  5.512E+01  5.574E+00  1.645E-01
   2   13    6     8     1    1.4154E+02  9.0471E-01   1.4064E+02  0.000E+00  0.000E+00  0.000E+00  1.02463E+03  2.753E+00  3.992E+01  4.068E+00  7.414E-02
   2   13    5     8     2    1.4064E+02 -2.1934E+00   1.4283E+02  0.000E+00  0.000E+00  0.000E+00  1.01838E+03  2.758E+00  3.999E+01  4.075E+00 -1.794E-01
   2   13    4     8     3    1.4283E+02 -5.2063E+00   1.4804E+02  0.000E+00  0.000E+00  0.000E+00  1.01216E+03  2.784E+00  4.037E+01  4.114E+00 -4.218E-01
   2   13    3     8     4    1.4804E+02 -5.9286E+00   1.5397E+02  0.000E+00  0.000E+00  0.000E+00  1.00595E+03  2.824E+00  4.095E+01  4.173E+00 -4.736E-01
   2   13    2     8     5    1.5397E+02 -3.7717E+00   1.5774E+02  0.000E+00  0.000E+00  0.000E+00  9.99733E+02  2.858E+00  4.143E+01  4.222E+00 -2.978E-01
   2   13    1     8     6    1.5774E+02 -2.4373E+00   1.6017E+02  0.000E+00  0.000E+00  0.000E+00  9.94754E+02  2.879E+00  4.174E+01  2.552E+00 -3.183E-01
   2    4    5     9     1    0.0000E+00  0.0000E+00   0.0000E+00  0.000E+00  0.000E+00  0.000E+00  1.06000E+03  0.000E+00  2.000E+01  2.000E-03  1.000E+00
   2    4    5    10     1    0.0000E+00  0.0000E+00   0.0000E+00  0.000E+00  0.000E+00  0.000E+00  1.08000E+03  0.000E+00  2.000E+01  2.000E-03  1.000E+00



 ..........LAKE  1 IS DRY..........

     SECTIONS OF THE LAKE BOTTOM HAVE BECOME DRY.  THE DRYSECTIONS
     LIE ABOVE THE FOLLOWING  1 AQUIFER CELLS (LAYER,ROW,COLUMN):
     (  2,  4,  5)  (

 PERIOD     5     TIME STEP     5     TIME STEP LENGTH  1.7520E+05
 PERIOD TIME  8.7600E+05     TOTAL SIMULATION TIME  1.1388E+07


                 HYDROLOGIC BUDGET SUMMARIES FOR SIMULATED LAKES
     (ALL FLUID FLUXES ARE VOLUMES ADDED TO THE LAKE DURING PRESENT TIME STEP)
     ----------------------------------------------------------------------------------------
 LAKE    STAGE         VOLUME     VOL. CHANGE      PRECIP     EVAPORATION    SPECIFIED RUNOFF     COMPUTED RUNOFF    TOTAL RUNOFF
   1  1.074500E+03  0.000000E+00  0.000000E+00  0.000000E+00  0.000000E+00   0.000000E+00          0.000000E+00      0.000000E+00

            GROUND WATER            SURFACE WATER        WATER          UZF INFIL.
 LAKE    INFLOW     OUTFLOW      INFLOW     OUTFLOW       USE        FROM LAKE
   1  0.0000E+00  0.0000E+00  0.0000E+00  0.0000E+00  0.0000E+00       0.0000E+00

      CONNECTED LAKE   TIME-STEP         STAGE-CHANGE          PERCENT
 LAKE    INFLUX      SURFACE AREA   TIME STEP  CUMULATIVE    DISCREPANCY
   1   0.0000E+00     0.0000E+00   0.0000E+00  0.0000E+00       0.000
 --------------------------------------------------------------------------------



            CUMULATIVE HYDROLOGIC BUDGET SUMMARIES FOR SIMULATED LAKES
     (ALL FLUID FLUXES ARE SUMS OF VOLUMES ADDED TO THE LAKE SINCE INITIAL TIME)
     ---------------------------------------------------------------------------
 LAKE       PRECIP       EVAP     SPECIFIED RUNOFF   COMPUTED RUNOFF   TOTAL RUNOFF
   1     0.0000E+00  0.0000E+00       0.0000E+00       0.0000E+00       0.0000E+00

            GROUND WATER            SURFACE WATER       UZF INFIL.
 LAKE    INFLOW     OUTFLOW      INFLOW     OUTFLOW     FROM LAKE
   1  0.0000E+00  0.0000E+00  0.0000E+00  0.0000E+00    0.0000E+00

         WATER    CONNECTED LAKE   CHANGE       PERCENT
 LAKE     USE         INFLUX       IN VOL.    DISCREPANCY
   1   0.0000E+00   0.0000E+00   0.0000E+00      0.000
 --------------------------------------------------------------------------------

 UBDSV3 SAVING "           GW ET" ON UNIT  61 AT TIME STEP 5, STRESS PERIOD 5
 UBDSV3 SAVING "    UZF RECHARGE" ON UNIT  61 AT TIME STEP 5, STRESS PERIOD 5
 UBDSV3 SAVING " SURFACE LEAKAGE" ON UNIT  61 AT TIME STEP 5, STRESS PERIOD 5
 UBDSV3 SAVING "       HORT+DUNN" ON UNIT  61 AT TIME STEP 5, STRESS PERIOD 5
 UBDSV3 SAVING "  STORAGE CHANGE" ON UNIT  61 AT TIME STEP 5, STRESS PERIOD 5


UNSATURATED ZONE PACKAGE VOLUMETRIC BUDGET FOR  TIME STEP     5 STRESS PERIOD    5
  ------------------------------------------------------------------------------



     CUMULATIVE VOLUMES      L**3       RATES FOR THIS TIME STEP      L**3/T
     ------------------                 ------------------------

           IN:                                      IN:
           ---                                      ---
        INFILTRATION =   883082460.0000          INFILTRATION =          42.2500

          OUT:                                     OUT:
          ----                                     ----
              UZF ET =   774062258.2311                UZF ET =          80.2563
        UZF RECHARGE =   281659411.6411          UZF RECHARGE =          34.5098

            IN - OUT =  -172639209.8722              IN - OUT =         -72.5161

          STORAGE:                                 STORAGE:
          --------                                 --------
      STORAGE CHANGE =  -172508861.5116        STORAGE CHANGE =         -72.5312

 PERCENT DISCREPANCY IS DIFFERENCE BETWEEN IN-OUT MINUS CHANGE IN STORAGE
 DIVIDED BY THE AVERAGE OF IN AND OUT TIMES 100

 PERCENT DISCREPANCY =          -0.00     PERCENT DISCREPANCY =           0.01






1
  VOLUMETRIC BUDGET FOR ENTIRE MODEL AT END OF TIME STEP    5, STRESS PERIOD   5
  ------------------------------------------------------------------------------

     CUMULATIVE VOLUMES      L**3       RATES FOR THIS TIME STEP      L**3/T
     ------------------                 ------------------------

           IN:                                      IN:
           ---                                      ---
             STORAGE     =    24978540.0000               STORAGE     =          14.4703
       CONSTANT HEAD     =           0.0000         CONSTANT HEAD     =           0.0000
               WELLS     =           0.0000                 WELLS     =           0.0000
     HEAD DEP BOUNDS     =     2446524.5000       HEAD DEP BOUNDS     =           0.2141
      STREAM LEAKAGE     =   534717184.0000        STREAM LEAKAGE     =          59.1231
       LAKE  SEEPAGE     =           0.0000         LAKE  SEEPAGE     =           0.0000
        UZF RECHARGE     =   281659392.0000          UZF RECHARGE     =          34.5098
               GW ET     =           0.0000                 GW ET     =           0.0000
     SURFACE LEAKAGE     =           0.0000       SURFACE LEAKAGE     =           0.0000

                TOTAL IN =   843801664.0000                  TOTAL IN =         108.3174

          OUT:                                     OUT:
          ----                                     ----
             STORAGE     =   299032480.0000               STORAGE     =          45.3184
       CONSTANT HEAD     =           0.0000         CONSTANT HEAD     =           0.0000
               WELLS     =   183960000.0000                 WELLS     =          30.0000
     HEAD DEP BOUNDS     =     3298031.5000       HEAD DEP BOUNDS     =           0.2929
      STREAM LEAKAGE     =   215403616.0000        STREAM LEAKAGE     =          20.2974
       LAKE  SEEPAGE     =           0.0000         LAKE  SEEPAGE     =           0.0000
        UZF RECHARGE     =           0.0000          UZF RECHARGE     =           0.0000
               GW ET     =   142094720.0000                 GW ET     =          12.4032
     SURFACE LEAKAGE     =           0.0000       SURFACE LEAKAGE     =           0.0000

               TOTAL OUT =   843788800.0000                 TOTAL OUT =         108.3120

                IN - OUT =       12864.0000                  IN - OUT =       5.4398E-03

     PERCENT DISCREPANCY =           0.00         PERCENT DISCREPANCY =           0.01






         TIME SUMMARY AT END OF TIME STEP    5 IN STRESS PERIOD    5
                    SECONDS     MINUTES      HOURS       DAYS        YEARS
                    -----------------------------------------------------------
   TIME STEP LENGTH 1.75200E+05  2920.0      48.667      2.0278     5.55175E-03
 STRESS PERIOD TIME 8.76000E+05  14600.      243.33      10.139     2.77588E-02
         TOTAL TIME 1.13880E+07 1.89800E+05  3163.3      131.81     0.36086    
1
 
 SOLVING FOR HEAD 
                                                   Max.-Head-Change                         Max.-Flux-Residual
  Residual-Control   Outer-Iter.   Inner-Iter.     Column Row Layer    Maximum-Head-Change  Column Row Layer    Maximum-Flux-Residual          L2-NORM 
          0                 1           2             6    2     2       0.2083562138E+00       6    2    2         0.2723572320E+01      0.9623397096E+01
          0                 2           2             6    2     2       0.1372061706E-01       6    2    2         0.1791038007E+00      0.6666304064E+00
          0                 3           1             6    2     2       0.9055197694E-03       6    2    2         0.1182090788E-01      0.4016686700E-01

    ------------------------------------------------
       NWT REQUIRED            3 OUTER ITERATIONS 
       AND A TOTAL OF          5 INNER ITERATIONS.
    ------------------------------------------------

 NO OUTPUT CONTROL FOR STRESS PERIOD    5   TIME STEP    6
 ..........LAKE  1 IS DRY..........
 
 SOLVING FOR HEAD 
                                                   Max.-Head-Change                         Max.-Flux-Residual
  Residual-Control   Outer-Iter.   Inner-Iter.     Column Row Layer    Maximum-Head-Change  Column Row Layer    Maximum-Flux-Residual          L2-NORM 
          0                 1           2             1    7     2       0.2068686424E+00       6    2    2         0.2703126868E+01      0.9166409967E+01
          0                 2           2             5   15     2       0.1413703439E-01       5   15    2         0.1846198876E+00      0.6085209338E+00
          0                 3           1             5   15     2       0.9320411087E-03       5   15    2         0.1217281432E-01      0.3774340576E-01

    ------------------------------------------------
       NWT REQUIRED            3 OUTER ITERATIONS 
       AND A TOTAL OF          5 INNER ITERATIONS.
    ------------------------------------------------

 NO OUTPUT CONTROL FOR STRESS PERIOD    5   TIME STEP    7
 ..........LAKE  1 IS DRY..........
 
 SOLVING FOR HEAD 
                                                   Max.-Head-Change                         Max.-Flux-Residual
  Residual-Control   Outer-Iter.   Inner-Iter.     Column Row Layer    Maximum-Head-Change  Column Row Layer    Maximum-Flux-Residual          L2-NORM 
          0                 1           2             4   15     2       0.2064744230E+00       4   15    2         0.2691680932E+01      0.9568121556E+01
          0                 2           2             4   15     2       0.1365770008E-01       4   15    2         0.1782123837E+00      0.6185498485E+00
          0                 3           1             1    6     2       0.9263872260E-03       1    6    2         0.1210138542E-01      0.3876238730E-01

    ------------------------------------------------
       NWT REQUIRED            3 OUTER ITERATIONS 
       AND A TOTAL OF          5 INNER ITERATIONS.
    ------------------------------------------------

 NO OUTPUT CONTROL FOR STRESS PERIOD    5   TIME STEP    8
 ..........LAKE  1 IS DRY..........
 
 SOLVING FOR HEAD 
                                                   Max.-Head-Change                         Max.-Flux-Residual
  Residual-Control   Outer-Iter.   Inner-Iter.     Column Row Layer    Maximum-Head-Change  Column Row Layer    Maximum-Flux-Residual          L2-NORM 
          0                 1           2            10   10     2       0.2072372448E+00      10   10    2         0.2700149450E+01      0.9731857387E+01
          0                 2           2            10   10     2       0.1435236568E-01      10   10    2         0.1870392238E+00      0.6279357509E+00
          0                 3           1            10   10     2       0.9972249891E-03      10   10    2         0.1299522816E-01      0.3959839298E-01

    ------------------------------------------------
       NWT REQUIRED            3 OUTER ITERATIONS 
       AND A TOTAL OF          5 INNER ITERATIONS.
    ------------------------------------------------

 NO OUTPUT CONTROL FOR STRESS PERIOD    5   TIME STEP    9
 ..........LAKE  1 IS DRY..........
 
 SOLVING FOR HEAD 
                                                   Max.-Head-Change                         Max.-Flux-Residual
  Residual-Control   Outer-Iter.   Inner-Iter.     Column Row Layer    Maximum-Head-Change  Column Row Layer    Maximum-Flux-Residual          L2-NORM 
          0                 1           2             2    2     2       0.7977283104E+00       2    2    2         0.2151485485E+02      0.5482669597E+02
          0                 2           2             2    2     2      -0.7620289875E-01       4   13    2        -0.2381195901E+01      0.4587590268E+01
          0                 3           2             2    2     2       0.4349247269E-02       2    2    2         0.1265278052E+00      0.2122488418E+00
          0                 4           1             2    2     2      -0.8732555388E-04       2    2    2        -0.2636627703E-02      0.5183519916E-02

    ------------------------------------------------
       NWT REQUIRED            4 OUTER ITERATIONS 
       AND A TOTAL OF          7 INNER ITERATIONS.
    ------------------------------------------------

 OUTPUT CONTROL FOR STRESS PERIOD    5   TIME STEP   10
    PRINT BUDGET
    SAVE BUDGET

            WELLS   PERIOD    5   STEP  10
 WELL      1   LAYER   2   ROW     6   COL     4   RATE    -3.00000    
 WELL      2   LAYER   2   ROW     6   COL     5   RATE    -3.00000    
 WELL      3   LAYER   2   ROW     7   COL     4   RATE    -3.00000    
 WELL      4   LAYER   2   ROW     7   COL     5   RATE    -3.00000    
 WELL      5   LAYER   2   ROW     8   COL     4   RATE    -3.00000    
 WELL      6   LAYER   2   ROW     8   COL     5   RATE    -3.00000    
 WELL      7   LAYER   2   ROW     9   COL     4   RATE    -3.00000    
 WELL      8   LAYER   2   ROW     9   COL     5   RATE    -3.00000    
 WELL      9   LAYER   2   ROW    10   COL     4   RATE    -3.00000    
 WELL     10   LAYER   2   ROW    10   COL     5   RATE    -3.00000    

  HEAD DEP BOUNDS   PERIOD    5   STEP    10
 BOUNDARY      1   LAYER   2   ROW    13   COL     1   RATE   -0.302177    
 BOUNDARY      2   LAYER   2   ROW    14   COL     9   RATE    0.213532    



 STREAM LISTING     PERIOD      5   STEP       10

 LAYER ROW COL. STREAM  RCH.  FLOW INTO     FLOW TO   FLOW OUT OF   OVRLND.     DIRECT     STREAM       STREAM     STREAM     STREAM   STREAMBED  STREAMBED
                SEG.NO.  NO.  STRM. RCH.    AQUIFER    STRM. RCH.    RUNOFF     PRECIP       ET          HEAD       DEPTH      WIDTH   CONDCTNC.   GRADIENT

   2    1    1     1     1    9.3895E+02  1.3629E+01   9.2533E+02  0.000E+00  0.000E+00  0.000E+00  1.09718E+03  4.135E+00  5.093E+01  2.292E+00  1.982E+00
   2    2    2     1     2    9.2533E+02  2.5125E+01   9.0020E+02  0.000E+00  0.000E+00  0.000E+00  1.09216E+03  4.103E+00  5.053E+01  3.537E+00  2.368E+00
   2    3    3     1     3    9.0020E+02  2.1211E+01   8.7899E+02  0.000E+00  0.000E+00  0.000E+00  1.08648E+03  4.064E+00  5.005E+01  3.003E+00  2.355E+00
   2    3    4     1     4    8.7899E+02  1.9355E+01   8.5964E+02  0.000E+00  0.000E+00  0.000E+00  1.08144E+03  4.029E+00  4.961E+01  2.754E+00  2.343E+00
   2    4    5     2     1    8.4964E+02  1.0124E+01   8.3951E+02  0.000E+00  0.000E+00  0.000E+00  1.08191E+03  9.980E+00  1.200E+01  7.800E-01  4.327E+00
   2    5    6     2     2    8.3951E+02  7.7498E+00   8.3176E+02  0.000E+00  0.000E+00  0.000E+00  1.07643E+03  9.916E+00  1.200E+01  6.000E-01  4.305E+00
   2    6    6     2     3    8.3176E+02  7.7168E+00   8.2404E+02  0.000E+00  0.000E+00  0.000E+00  1.07165E+03  9.861E+00  1.200E+01  6.000E-01  4.287E+00
   2    7    6     2     4    8.2404E+02  7.6837E+00   8.1636E+02  0.000E+00  0.000E+00  0.000E+00  1.06688E+03  9.806E+00  1.200E+01  6.000E-01  4.269E+00
   2    8    6     2     5    8.1636E+02  7.6506E+00   8.0871E+02  0.000E+00  0.000E+00  0.000E+00  1.06211E+03  9.751E+00  1.200E+01  6.000E-01  4.250E+00
   2    3    5     3     1    1.0000E+01  2.8252E+00   7.1748E+00  0.000E+00  0.000E+00  0.000E+00  1.07555E+03  1.909E+00  9.636E+00  7.227E-01  1.955E+00
   2    3    6     3     2    7.1748E+00  2.4905E+00   4.6843E+00  0.000E+00  0.000E+00  0.000E+00  1.07264E+03  1.727E+00  8.909E+00  6.682E-01  1.864E+00
   2    3    7     3     3    4.6843E+00  1.9718E+00   2.7125E+00  0.000E+00  0.000E+00  0.000E+00  1.06987E+03  1.555E+00  8.218E+00  5.547E-01  1.777E+00
   2    4    8     3     4    2.7125E+00  2.2567E+00   4.5579E-01  0.000E+00  0.000E+00  0.000E+00  1.06682E+03  1.364E+00  7.455E+00  6.709E-01  1.682E+00
   2    5    8     3     5    4.5579E-01  4.5579E-01   0.0000E+00  0.000E+00  0.000E+00  0.000E+00  1.06362E+03  0.000E+00  6.655E+00  4.991E-01  1.582E+00
   2    6    8     3     6    0.0000E+00  0.0000E+00   0.0000E+00  0.000E+00  0.000E+00  0.000E+00  1.06055E+03  0.000E+00  6.145E+00  1.844E-01  1.000E+00
   2    5   10     4     1    1.0000E+01  9.0525E-01   9.0947E+00  0.000E+00  0.000E+00  0.000E+00  1.07835E+03  6.210E-01  1.000E+01  2.500E-01  1.207E+00
   2    5    9     4     2    9.0947E+00  1.7835E+00   7.3113E+00  0.000E+00  0.000E+00  0.000E+00  1.07148E+03  5.670E-01  1.000E+01  5.000E-01  1.189E+00
   2    6    8     4     3    7.3113E+00  1.2257E+00   6.0855E+00  0.000E+00  0.000E+00  0.000E+00  1.06368E+03  5.021E-01  1.000E+01  3.500E-01  1.167E+00
   2    6    8     5     1    6.0855E+00  1.4716E+00   4.6139E+00  0.000E+00  0.000E+00  0.000E+00  1.05854E+03  5.396E-01  1.039E+01  4.158E-01  1.180E+00
   2    7    7     5     2    4.6139E+00  1.4897E+00   3.1242E+00  0.000E+00  0.000E+00  0.000E+00  1.05398E+03  4.817E-01  8.557E+00  4.279E-01  1.161E+00
   2    8    7     5     3    3.1242E+00  8.2855E-01   2.2957E+00  0.000E+00  0.000E+00  0.000E+00  1.04968E+03  4.253E-01  6.911E+00  2.419E-01  1.142E+00
   2    8    6     5     4    2.2957E+00  4.9455E-01   1.8011E+00  0.000E+00  0.000E+00  0.000E+00  1.04664E+03  3.856E-01  5.843E+00  1.461E-01  1.129E+00
   2    9    6     6     1    8.1051E+02  7.6903E+00   8.0282E+02  0.000E+00  0.000E+00  0.000E+00  1.05254E+03  9.817E+00  1.200E+01  6.000E-01  4.272E+00
   2   10    7     6     2    8.0282E+02  7.6566E+00   7.9516E+02  0.000E+00  0.000E+00  0.000E+00  1.04794E+03  9.761E+00  1.200E+01  6.000E-01  4.254E+00
   2   11    7     6     3    7.9516E+02  7.6230E+00   7.8754E+02  0.000E+00  0.000E+00  0.000E+00  1.04334E+03  9.705E+00  1.200E+01  6.000E-01  4.235E+00
   2   12    7     6     4    7.8754E+02  6.5339E+00   7.8101E+02  0.000E+00  0.000E+00  0.000E+00  1.03874E+03  9.653E+00  1.200E+01  6.000E-01  3.630E+00
   2   13    7     6     5    7.8101E+02  1.5143E+00   7.7949E+02  0.000E+00  0.000E+00  0.000E+00  1.03553E+03  9.623E+00  1.200E+01  2.400E-01  2.103E+00
   2   14    9     7     1    1.5000E+02  2.7063E+00   1.4729E+02  0.000E+00  0.000E+00  0.000E+00  1.03986E+03  2.284E+00  5.528E+01  5.591E+00  1.613E-01
   2   13    8     7     2    1.4729E+02  3.6828E+00   1.4361E+02  0.000E+00  0.000E+00  0.000E+00  1.03477E+03  2.267E+00  5.520E+01  6.141E+00  1.999E-01
   2   13    7     7     3    1.4361E+02  2.4925E+00   1.4112E+02  0.000E+00  0.000E+00  0.000E+00  1.02967E+03  2.250E+00  5.513E+01  5.575E+00  1.490E-01
   2   13    6     8     1    9.2061E+02  1.6073E+01   9.0485E+02  3.073E-01  0.000E+00  0.000E+00  1.02732E+03  5.445E+00  6.410E+01  6.586E+00  8.135E-01
   2   13    5     8     2    9.0485E+02  1.1026E+01   8.9413E+02  3.073E-01  0.000E+00  0.000E+00  1.02104E+03  5.415E+00  6.397E+01  6.571E+00  5.593E-01
   2   13    4     8     3    8.9413E+02  6.5650E+00   8.8787E+02  3.073E-01  0.000E+00  0.000E+00  1.01477E+03  5.395E+00  6.389E+01  6.562E+00  3.335E-01
   2   13    3     8     4    8.8787E+02  5.2331E+00   8.8294E+02  3.073E-01  0.000E+00  0.000E+00  1.00851E+03  5.382E+00  6.383E+01  6.556E+00  2.661E-01
   2   13    2     8     5    8.8294E+02  7.9389E+00   8.7531E+02  3.073E-01  0.000E+00  0.000E+00  1.00224E+03  5.367E+00  6.377E+01  6.549E+00  4.041E-01
   2   13    1     8     6    8.7531E+02  5.0074E+00   8.7049E+02  1.844E-01  0.000E+00  0.000E+00  9.97228E+02  5.353E+00  6.371E+01  3.925E+00  4.252E-01
   2    4    5     9     1    0.0000E+00  0.0000E+00   0.0000E+00  0.000E+00  0.000E+00  0.000E+00  1.06000E+03  0.000E+00  2.000E+01  2.000E-03  1.000E+00
   2    4    5    10     1    0.0000E+00  0.0000E+00   0.0000E+00  0.000E+00  0.000E+00  0.000E+00  1.08000E+03  0.000E+00  2.000E+01  2.000E-03  1.000E+00



 ..........LAKE  1 IS DRY..........

     SECTIONS OF THE LAKE BOTTOM HAVE BECOME DRY.  THE DRYSECTIONS
     LIE ABOVE THE FOLLOWING  1 AQUIFER CELLS (LAYER,ROW,COLUMN):
     (  2,  4,  5)  (

 PERIOD     5     TIME STEP    10     TIME STEP LENGTH  1.7520E+05
 PERIOD TIME  1.7520E+06     TOTAL SIMULATION TIME  1.2264E+07


                 HYDROLOGIC BUDGET SUMMARIES FOR SIMULATED LAKES
     (ALL FLUID FLUXES ARE VOLUMES ADDED TO THE LAKE DURING PRESENT TIME STEP)
     ----------------------------------------------------------------------------------------
 LAKE    STAGE         VOLUME     VOL. CHANGE      PRECIP     EVAPORATION    SPECIFIED RUNOFF     COMPUTED RUNOFF    TOTAL RUNOFF
   1  1.074500E+03  0.000000E+00  0.000000E+00  0.000000E+00  0.000000E+00   0.000000E+00          0.000000E+00      0.000000E+00

            GROUND WATER            SURFACE WATER        WATER          UZF INFIL.
 LAKE    INFLOW     OUTFLOW      INFLOW     OUTFLOW       USE        FROM LAKE
   1  0.0000E+00  0.0000E+00  0.0000E+00  0.0000E+00  0.0000E+00       0.0000E+00

      CONNECTED LAKE   TIME-STEP         STAGE-CHANGE          PERCENT
 LAKE    INFLUX      SURFACE AREA   TIME STEP  CUMULATIVE    DISCREPANCY
   1   0.0000E+00     0.0000E+00   0.0000E+00  0.0000E+00       0.000
 --------------------------------------------------------------------------------



            CUMULATIVE HYDROLOGIC BUDGET SUMMARIES FOR SIMULATED LAKES
     (ALL FLUID FLUXES ARE SUMS OF VOLUMES ADDED TO THE LAKE SINCE INITIAL TIME)
     ---------------------------------------------------------------------------
 LAKE       PRECIP       EVAP     SPECIFIED RUNOFF   COMPUTED RUNOFF   TOTAL RUNOFF
   1     0.0000E+00  0.0000E+00       0.0000E+00       0.0000E+00       0.0000E+00

            GROUND WATER            SURFACE WATER       UZF INFIL.
 LAKE    INFLOW     OUTFLOW      INFLOW     OUTFLOW     FROM LAKE
   1  0.0000E+00  0.0000E+00  0.0000E+00  0.0000E+00    0.0000E+00

         WATER    CONNECTED LAKE   CHANGE       PERCENT
 LAKE     USE         INFLUX       IN VOL.    DISCREPANCY
   1   0.0000E+00   0.0000E+00   0.0000E+00      0.000
 --------------------------------------------------------------------------------

 UBDSV3 SAVING "           GW ET" ON UNIT  61 AT TIME STEP 10, STRESS PERIOD 5
 UBDSV3 SAVING "    UZF RECHARGE" ON UNIT  61 AT TIME STEP 10, STRESS PERIOD 5
 UBDSV3 SAVING " SURFACE LEAKAGE" ON UNIT  61 AT TIME STEP 10, STRESS PERIOD 5
 UBDSV3 SAVING "       HORT+DUNN" ON UNIT  61 AT TIME STEP 10, STRESS PERIOD 5
 UBDSV3 SAVING "  STORAGE CHANGE" ON UNIT  61 AT TIME STEP 10, STRESS PERIOD 5


UNSATURATED ZONE PACKAGE VOLUMETRIC BUDGET FOR  TIME STEP    10 STRESS PERIOD    5
  ------------------------------------------------------------------------------



     CUMULATIVE VOLUMES      L**3       RATES FOR THIS TIME STEP      L**3/T
     ------------------                 ------------------------

           IN:                                      IN:
           ---                                      ---
        INFILTRATION =   920072513.6660          INFILTRATION =          42.1304

          OUT:                                     OUT:
          ----                                     ----
              UZF ET =   845972820.6089                UZF ET =          83.1970
        UZF RECHARGE =   323741716.9143          UZF RECHARGE =          60.9004

            IN - OUT =  -249642023.8572              IN - OUT =        -101.9669

          STORAGE:                                 STORAGE:
          --------                                 --------
      STORAGE CHANGE =  -249484578.6348        STORAGE CHANGE =        -101.8056

 PERCENT DISCREPANCY IS DIFFERENCE BETWEEN IN-OUT MINUS CHANGE IN STORAGE
 DIVIDED BY THE AVERAGE OF IN AND OUT TIMES 100

 PERCENT DISCREPANCY =          -0.00     PERCENT DISCREPANCY =          -0.11






1
  VOLUMETRIC BUDGET FOR ENTIRE MODEL AT END OF TIME STEP   10, STRESS PERIOD   5
  ------------------------------------------------------------------------------

     CUMULATIVE VOLUMES      L**3       RATES FOR THIS TIME STEP      L**3/T
     ------------------                 ------------------------

           IN:                                      IN:
           ---                                      ---
             STORAGE     =    36827840.0000               STORAGE     =           9.8062
       CONSTANT HEAD     =           0.0000         CONSTANT HEAD     =           0.0000
               WELLS     =           0.0000                 WELLS     =           0.0000
     HEAD DEP BOUNDS     =     2633841.5000       HEAD DEP BOUNDS     =           0.2135
      STREAM LEAKAGE     =   611712064.0000        STREAM LEAKAGE     =         230.1860
       LAKE  SEEPAGE     =           0.0000         LAKE  SEEPAGE     =           0.0000
        UZF RECHARGE     =   323741696.0000          UZF RECHARGE     =          60.9004
               GW ET     =           0.0000                 GW ET     =           0.0000
     SURFACE LEAKAGE     =           0.0000       SURFACE LEAKAGE     =           0.0000

                TOTAL IN =   974915456.0000                  TOTAL IN =         301.1061

          OUT:                                     OUT:
          ----                                     ----
             STORAGE     =   378427072.0000               STORAGE     =         256.6627
       CONSTANT HEAD     =           0.0000         CONSTANT HEAD     =           0.0000
               WELLS     =   210240000.0000                 WELLS     =          30.0000
     HEAD DEP BOUNDS     =     3555813.0000       HEAD DEP BOUNDS     =           0.3022
      STREAM LEAKAGE     =   229458912.0000        STREAM LEAKAGE     =           0.0000
       LAKE  SEEPAGE     =           0.0000         LAKE  SEEPAGE     =           0.0000
        UZF RECHARGE     =           0.0000          UZF RECHARGE     =           0.0000
               GW ET     =   152934944.0000                 GW ET     =          12.5401
     SURFACE LEAKAGE     =      280440.7500       SURFACE LEAKAGE     =           1.6007

               TOTAL OUT =   974897152.0000                 TOTAL OUT =         301.1056

                IN - OUT =       18304.0000                  IN - OUT =       4.5776E-04

     PERCENT DISCREPANCY =           0.00         PERCENT DISCREPANCY =           0.00






         TIME SUMMARY AT END OF TIME STEP   10 IN STRESS PERIOD    5
                    SECONDS     MINUTES      HOURS       DAYS        YEARS
                    -----------------------------------------------------------
   TIME STEP LENGTH 1.75200E+05  2920.0      48.667      2.0278     5.55175E-03
 STRESS PERIOD TIME 1.75200E+06  29200.      486.67      20.278     5.55175E-02
         TOTAL TIME 1.22640E+07 2.04400E+05  3406.7      141.94     0.38862    
1
 
 SOLVING FOR HEAD 
                                                   Max.-Head-Change                         Max.-Flux-Residual
  Residual-Control   Outer-Iter.   Inner-Iter.     Column Row Layer    Maximum-Head-Change  Column Row Layer    Maximum-Flux-Residual          L2-NORM 
          0                 1           2             2    2     2       0.1543366502E+01       2    2    2         0.4162789831E+02      0.1002201597E+03
          0                 2           2             5    4     2      -0.5258738110E+00       5    4    2        -0.1612236641E+02      0.1810703614E+02
          0                 3           2             4   13     2       0.1908854124E-01       5    4    2         0.4695505238E+00      0.7409238446E+00
          0                 4           1             4   13     2      -0.1727532264E-02       4   13    2        -0.3878543890E-01      0.4388677223E-01
          0                 5           1             4   13     2       0.9208622775E-04       4   13    2         0.2148134419E-02      0.2291553087E-02

    ------------------------------------------------
       NWT REQUIRED            5 OUTER ITERATIONS 
       AND A TOTAL OF          8 INNER ITERATIONS.
    ------------------------------------------------

 NO OUTPUT CONTROL FOR STRESS PERIOD    5   TIME STEP   11
 
 SOLVING FOR HEAD 
                                                   Max.-Head-Change                         Max.-Flux-Residual
  Residual-Control   Outer-Iter.   Inner-Iter.     Column Row Layer    Maximum-Head-Change  Column Row Layer    Maximum-Flux-Residual          L2-NORM 
          0                 1           2             2    2     2       0.1487709779E+01       2    2    2         0.4010451618E+02      0.8212188626E+02
          0                 2           2             1   13     2      -0.1491292774E+00       1   13    2        -0.1052867084E+02      0.1240710186E+02
          0                 3           2             3   13     2      -0.1053490970E-01       1   13    2        -0.3143444018E+00      0.5313775242E+00
          0                 4           2             3   13     2       0.1355536034E-02       3   13    2         0.3304386563E-01      0.6143048653E-01
          0                 5           1             5   13     2      -0.1055977538E-03       5   13    2        -0.2237413904E-02      0.4183294560E-02

    ------------------------------------------------
       NWT REQUIRED            5 OUTER ITERATIONS 
       AND A TOTAL OF          9 INNER ITERATIONS.
    ------------------------------------------------

 NO OUTPUT CONTROL FOR STRESS PERIOD    5   TIME STEP   12
 
 SOLVING FOR HEAD 
                                                   Max.-Head-Change                         Max.-Flux-Residual
  Residual-Control   Outer-Iter.   Inner-Iter.     Column Row Layer    Maximum-Head-Change  Column Row Layer    Maximum-Flux-Residual          L2-NORM 
          0                 1           2             2    2     2       0.1434898734E+01       2    2    2         0.3865889944E+02      0.7284112368E+02
          0                 2           2             5   13     2       0.1394265862E+00       2    2    2        -0.3847552676E+01      0.7973228157E+01
          0                 3           2             5   13     2      -0.1231029443E-01       5   13    2        -0.2501721891E+00      0.5434330143E+00
          0                 4           2             5   13     2       0.1664480170E-02       5   13    2         0.3439664556E-01      0.6016234746E-01
          0                 5           1             5   13     2      -0.1115505915E-03       6   13    2        -0.2463237541E-02      0.4443860339E-02

    ------------------------------------------------
       NWT REQUIRED            5 OUTER ITERATIONS 
       AND A TOTAL OF          9 INNER ITERATIONS.
    ------------------------------------------------

 NO OUTPUT CONTROL FOR STRESS PERIOD    5   TIME STEP   13
 
 SOLVING FOR HEAD 
                                                   Max.-Head-Change                         Max.-Flux-Residual
  Residual-Control   Outer-Iter.   Inner-Iter.     Column Row Layer    Maximum-Head-Change  Column Row Layer    Maximum-Flux-Residual          L2-NORM 
          0                 1           2             5    4     2       0.2486039959E+01       5    4    2         0.7315356860E+02      0.8909906884E+02
          0                 2           2             5    4     2       0.6823809435E+00       5    4    2         0.2017614796E+02      0.2112923718E+02
          0                 3           2             5    4     2       0.1979688133E+00       5    4    2         0.5854935906E+01      0.1060053969E+02
          0                 4           2             5    4     2       0.5747147133E-01       5    4    2         0.1699295038E+01      0.1714212067E+01
          0                 5           2             5    4     2       0.1668775510E-01       5    4    2         0.4934288351E+00      0.4934956993E+00
          0                 6           2             5    4     2       0.4845650933E-02       5    4    2         0.1432797276E+00      0.1432863555E+00
          0                 7           2             5    4     2       0.1407046858E-02       5    4    2         0.4160467578E-01      0.4160656610E-01
          0                 8           1             5    4     2       0.4085693583E-03       5    4    2         0.1208091347E-01      0.1208146264E-01

    ------------------------------------------------
       NWT REQUIRED            8 OUTER ITERATIONS 
       AND A TOTAL OF         15 INNER ITERATIONS.
    ------------------------------------------------

 NO OUTPUT CONTROL FOR STRESS PERIOD    5   TIME STEP   14
 
 SOLVING FOR HEAD 
                                                   Max.-Head-Change                         Max.-Flux-Residual
  Residual-Control   Outer-Iter.   Inner-Iter.     Column Row Layer    Maximum-Head-Change  Column Row Layer    Maximum-Flux-Residual          L2-NORM 
          0                 1           2             5    4     2       0.2162708908E+01       5    4    2         0.6328450901E+02      0.7834087561E+02
          0                 2           2             6   13     2       0.6246157936E+00       6   13    2         0.2119079420E+02      0.3897524139E+02
          0                 3           2             5    4     2       0.1747994238E+00       5    4    2         0.5173810392E+01      0.7527862423E+01
          0                 4           2             5    4     2       0.4969157825E-01       5    4    2         0.1471559634E+01      0.1473146303E+01
          0                 5           2             5    4     2       0.1412617984E-01       5    4    2         0.4183098416E+00      0.4183311175E+00
          0                 6           2             5    4     2       0.4015877540E-02       5    4    2         0.1189224284E+00      0.1189280304E+00
          0                 7           2             5    4     2       0.1141661883E-02       5    4    2         0.3380808498E-01      0.3380968852E-01
          0                 8           1             5    4     2       0.3245603055E-03       5    4    2         0.9611230569E-02      0.9611686866E-02

    ------------------------------------------------
       NWT REQUIRED            8 OUTER ITERATIONS 
       AND A TOTAL OF         15 INNER ITERATIONS.
    ------------------------------------------------

 OUTPUT CONTROL FOR STRESS PERIOD    5   TIME STEP   15
    PRINT BUDGET
    SAVE BUDGET

            WELLS   PERIOD    5   STEP  15
 WELL      1   LAYER   2   ROW     6   COL     4   RATE    -3.00000    
 WELL      2   LAYER   2   ROW     6   COL     5   RATE    -3.00000    
 WELL      3   LAYER   2   ROW     7   COL     4   RATE    -3.00000    
 WELL      4   LAYER   2   ROW     7   COL     5   RATE    -3.00000    
 WELL      5   LAYER   2   ROW     8   COL     4   RATE    -3.00000    
 WELL      6   LAYER   2   ROW     8   COL     5   RATE    -3.00000    
 WELL      7   LAYER   2   ROW     9   COL     4   RATE    -3.00000    
 WELL      8   LAYER   2   ROW     9   COL     5   RATE    -3.00000    
 WELL      9   LAYER   2   ROW    10   COL     4   RATE    -3.00000    
 WELL     10   LAYER   2   ROW    10   COL     5   RATE    -3.00000    

  HEAD DEP BOUNDS   PERIOD    5   STEP    15
 BOUNDARY      1   LAYER   2   ROW    13   COL     1   RATE   -0.334592    
 BOUNDARY      2   LAYER   2   ROW    14   COL     9   RATE    0.213461    



 STREAM LISTING     PERIOD      5   STEP       15

 LAYER ROW COL. STREAM  RCH.  FLOW INTO     FLOW TO   FLOW OUT OF   OVRLND.     DIRECT     STREAM       STREAM     STREAM     STREAM   STREAMBED  STREAMBED
                SEG.NO.  NO.  STRM. RCH.    AQUIFER    STRM. RCH.    RUNOFF     PRECIP       ET          HEAD       DEPTH      WIDTH   CONDCTNC.   GRADIENT

   2    1    1     1     1    1.6000E+02  1.9866E+00   1.5801E+02  0.000E+00  0.000E+00  0.000E+00  1.09519E+03  2.140E+00  2.619E+01  1.179E+00  5.618E-01
   2    2    2     1     2    1.5801E+02  8.8020E+00   1.4921E+02  0.000E+00  0.000E+00  0.000E+00  1.09017E+03  2.112E+00  2.585E+01  1.810E+00  1.621E+00
   2    3    3     1     3    1.4921E+02  7.7019E+00   1.4151E+02  0.000E+00  0.000E+00  0.000E+00  1.08449E+03  2.069E+00  2.532E+01  1.519E+00  1.690E+00
   2    3    4     1     4    1.4151E+02  6.9329E+00   1.3458E+02  0.000E+00  0.000E+00  0.000E+00  1.07944E+03  2.030E+00  2.484E+01  1.378E+00  1.677E+00
   2    4    5     2     1    1.2458E+02  0.0000E+00   1.2458E+02  0.000E+00  0.000E+00  0.000E+00  1.07510E+03  3.165E+00  1.200E+01  0.000E+00  2.055E+00
   2    5    6     2     2    1.2458E+02  3.6823E+00   1.2089E+02  0.000E+00  0.000E+00  0.000E+00  1.06965E+03  3.137E+00  1.200E+01  6.000E-01  2.046E+00
   2    6    6     2     3    1.2089E+02  3.6483E+00   1.1725E+02  0.000E+00  0.000E+00  0.000E+00  1.06487E+03  3.081E+00  1.200E+01  6.000E-01  2.027E+00
   2    7    6     2     4    1.1725E+02  3.6143E+00   1.1363E+02  0.000E+00  0.000E+00  0.000E+00  1.06010E+03  3.024E+00  1.200E+01  6.000E-01  2.008E+00
   2    8    6     2     5    1.1363E+02  3.5802E+00   1.1005E+02  0.000E+00  0.000E+00  0.000E+00  1.05533E+03  2.967E+00  1.200E+01  6.000E-01  1.989E+00
   2    3    5     3     1    1.0000E+01  2.8252E+00   7.1748E+00  0.000E+00  0.000E+00  0.000E+00  1.07555E+03  1.909E+00  9.636E+00  7.227E-01  1.955E+00
   2    3    6     3     2    7.1748E+00  2.4905E+00   4.6843E+00  0.000E+00  0.000E+00  0.000E+00  1.07264E+03  1.727E+00  8.909E+00  6.682E-01  1.864E+00
   2    3    7     3     3    4.6843E+00  1.9718E+00   2.7125E+00  0.000E+00  0.000E+00  0.000E+00  1.06987E+03  1.555E+00  8.218E+00  5.547E-01  1.777E+00
   2    4    8     3     4    2.7125E+00  2.2567E+00   4.5579E-01  0.000E+00  0.000E+00  0.000E+00  1.06682E+03  1.364E+00  7.455E+00  6.709E-01  1.682E+00
   2    5    8     3     5    4.5579E-01  4.5579E-01   0.0000E+00  0.000E+00  0.000E+00  0.000E+00  1.06362E+03  0.000E+00  6.655E+00  4.991E-01  1.582E+00
   2    6    8     3     6    0.0000E+00  0.0000E+00   0.0000E+00  0.000E+00  0.000E+00  0.000E+00  1.06055E+03  0.000E+00  6.145E+00  1.844E-01  1.000E+00
   2    5   10     4     1    1.0000E+01  9.0525E-01   9.0947E+00  0.000E+00  0.000E+00  0.000E+00  1.07835E+03  6.210E-01  1.000E+01  2.500E-01  1.207E+00
   2    5    9     4     2    9.0947E+00  1.7835E+00   7.3113E+00  0.000E+00  0.000E+00  0.000E+00  1.07148E+03  5.670E-01  1.000E+01  5.000E-01  1.189E+00
   2    6    8     4     3    7.3113E+00  1.2257E+00   6.0855E+00  0.000E+00  0.000E+00  0.000E+00  1.06368E+03  5.021E-01  1.000E+01  3.500E-01  1.167E+00
   2    6    8     5     1    6.0855E+00  1.4716E+00   4.6139E+00  0.000E+00  0.000E+00  0.000E+00  1.05854E+03  5.396E-01  1.039E+01  4.158E-01  1.180E+00
   2    7    7     5     2    4.6139E+00  1.4897E+00   3.1242E+00  0.000E+00  0.000E+00  0.000E+00  1.05398E+03  4.817E-01  8.557E+00  4.279E-01  1.161E+00
   2    8    7     5     3    3.1242E+00  8.2855E-01   2.2957E+00  0.000E+00  0.000E+00  0.000E+00  1.04968E+03  4.253E-01  6.911E+00  2.419E-01  1.142E+00
   2    8    6     5     4    2.2957E+00  4.9455E-01   1.8011E+00  0.000E+00  0.000E+00  0.000E+00  1.04664E+03  3.856E-01  5.843E+00  1.461E-01  1.129E+00
   2    9    6     6     1    1.1185E+02  3.5828E+00   1.0827E+02  0.000E+00  0.000E+00  0.000E+00  1.04570E+03  2.971E+00  1.200E+01  6.000E-01  1.990E+00
   2   10    7     6     2    1.0827E+02  3.5479E+00   1.0472E+02  0.000E+00  0.000E+00  0.000E+00  1.04109E+03  2.913E+00  1.200E+01  6.000E-01  1.971E+00
   2   11    7     6     3    1.0472E+02  3.5101E+00   1.0121E+02  0.000E+00  0.000E+00  0.000E+00  1.03649E+03  2.855E+00  1.200E+01  6.000E-01  1.950E+00
   2   12    7     6     4    1.0121E+02  1.6856E+00   9.9526E+01  0.000E+00  0.000E+00  0.000E+00  1.03190E+03  2.811E+00  1.200E+01  6.000E-01  9.365E-01
   2   13    7     6     5    9.9526E+01 -2.2880E-01   9.9755E+01  0.000E+00  0.000E+00  0.000E+00  1.02871E+03  2.799E+00  1.200E+01  2.400E-01 -3.178E-01
   2   14    9     7     1    1.5000E+02  2.6960E+00   1.4730E+02  0.000E+00  0.000E+00  0.000E+00  1.03986E+03  2.284E+00  5.528E+01  5.591E+00  1.607E-01
   2   13    8     7     2    1.4730E+02  3.5641E+00   1.4374E+02  0.000E+00  0.000E+00  0.000E+00  1.03477E+03  2.267E+00  5.520E+01  6.141E+00  1.934E-01
   2   13    7     7     3    1.4374E+02  8.5515E-02   1.4365E+02  0.000E+00  0.000E+00  0.000E+00  1.02968E+03  2.258E+00  5.516E+01  5.578E+00  5.110E-03
   2   13    6     8     1    2.4341E+02 -6.4323E+00   2.5170E+02  1.854E+00  0.000E+00  0.000E+00  1.02527E+03  3.399E+00  4.929E+01  5.022E+00 -4.269E-01
   2   13    5     8     2    2.5170E+02 -4.0825E+00   2.5763E+02  1.854E+00  0.000E+00  0.000E+00  1.01906E+03  3.435E+00  4.981E+01  5.076E+00 -2.681E-01
   2   13    4     8     3    2.5763E+02 -5.4771E+00   2.6496E+02  1.854E+00  0.000E+00  0.000E+00  1.01284E+03  3.469E+00  5.029E+01  5.125E+00 -3.562E-01
   2   13    3     8     4    2.6496E+02 -6.6007E+00   2.7342E+02  1.854E+00  0.000E+00  0.000E+00  1.00663E+03  3.508E+00  5.086E+01  5.183E+00 -4.245E-01
   2   13    2     8     5    2.7342E+02 -1.2331E+01   2.8760E+02  1.854E+00  0.000E+00  0.000E+00  1.00044E+03  3.562E+00  5.165E+01  5.263E+00 -7.809E-01
   2   13    1     8     6    2.8760E+02 -4.2286E+00   2.9294E+02  1.112E+00  0.000E+00  0.000E+00  9.95483E+02  3.608E+00  5.232E+01  3.199E+00 -4.406E-01
   2    4    5     9     1    0.0000E+00  0.0000E+00   0.0000E+00  0.000E+00  0.000E+00  0.000E+00  1.06027E+03  2.749E-01  2.000E+01  0.000E+00 -2.787E-01
   2    4    5    10     1    0.0000E+00  0.0000E+00   0.0000E+00  0.000E+00  0.000E+00  0.000E+00  1.08000E+03  0.000E+00  2.000E+01  2.000E-03  1.000E+00





     0  LAKE CELLS ARE DRY.

 PERIOD     5     TIME STEP    15     TIME STEP LENGTH  1.7520E+05
 PERIOD TIME  2.6280E+06     TOTAL SIMULATION TIME  1.3140E+07


                 HYDROLOGIC BUDGET SUMMARIES FOR SIMULATED LAKES
     (ALL FLUID FLUXES ARE VOLUMES ADDED TO THE LAKE DURING PRESENT TIME STEP)
     ----------------------------------------------------------------------------------------
 LAKE    STAGE         VOLUME     VOL. CHANGE      PRECIP     EVAPORATION    SPECIFIED RUNOFF     COMPUTED RUNOFF    TOTAL RUNOFF
   1  1.082257E+03  7.983097E+07 -1.315262E+07  0.000000E+00  1.429427E+05   0.000000E+00          0.000000E+00      0.000000E+00

            GROUND WATER            SURFACE WATER        WATER          UZF INFIL.
 LAKE    INFLOW     OUTFLOW      INFLOW     OUTFLOW       USE        FROM LAKE
   1  0.0000E+00  0.0000E+00  0.0000E+00  0.0000E+00  0.0000E+00       1.3010E+07

      CONNECTED LAKE   TIME-STEP         STAGE-CHANGE          PERCENT
 LAKE    INFLUX      SURFACE AREA   TIME STEP  CUMULATIVE    DISCREPANCY
   1   0.0000E+00     2.0397E+07  -6.1540E-01  7.7574E+00       0.000
 --------------------------------------------------------------------------------



            CUMULATIVE HYDROLOGIC BUDGET SUMMARIES FOR SIMULATED LAKES
     (ALL FLUID FLUXES ARE SUMS OF VOLUMES ADDED TO THE LAKE SINCE INITIAL TIME)
     ---------------------------------------------------------------------------
 LAKE       PRECIP       EVAP     SPECIFIED RUNOFF   COMPUTED RUNOFF   TOTAL RUNOFF
   1     0.0000E+00  7.4234E+05       0.0000E+00       0.0000E+00       0.0000E+00

            GROUND WATER            SURFACE WATER       UZF INFIL.
 LAKE    INFLOW     OUTFLOW      INFLOW     OUTFLOW     FROM LAKE
   1  0.0000E+00  0.0000E+00  1.9325E+08  4.8785E+07    6.3891E+07

         WATER    CONNECTED LAKE   CHANGE       PERCENT
 LAKE     USE         INFLUX       IN VOL.    DISCREPANCY
   1   0.0000E+00   0.0000E+00   7.9831E+07     -0.000
 --------------------------------------------------------------------------------

 UBDSV3 SAVING "           GW ET" ON UNIT  61 AT TIME STEP 15, STRESS PERIOD 5
 UBDSV3 SAVING "    UZF RECHARGE" ON UNIT  61 AT TIME STEP 15, STRESS PERIOD 5
 UBDSV3 SAVING " SURFACE LEAKAGE" ON UNIT  61 AT TIME STEP 15, STRESS PERIOD 5
 UBDSV3 SAVING "       HORT+DUNN" ON UNIT  61 AT TIME STEP 15, STRESS PERIOD 5
 UBDSV3 SAVING "  STORAGE CHANGE" ON UNIT  61 AT TIME STEP 15, STRESS PERIOD 5


UNSATURATED ZONE PACKAGE VOLUMETRIC BUDGET FOR  TIME STEP    15 STRESS PERIOD    5
  ------------------------------------------------------------------------------



     CUMULATIVE VOLUMES      L**3       RATES FOR THIS TIME STEP      L**3/T
     ------------------                 ------------------------

           IN:                                      IN:
           ---                                      ---
        INFILTRATION =  1020335358.2417          INFILTRATION =         116.1586

          OUT:                                     OUT:
          ----                                     ----
              UZF ET =   918028244.3914                UZF ET =          80.3076
        UZF RECHARGE =   409397708.7272          UZF RECHARGE =         156.5563

            IN - OUT =  -307090594.8769              IN - OUT =        -120.7054

          STORAGE:                                 STORAGE:
          --------                                 --------
      STORAGE CHANGE =  -306585425.0937        STORAGE CHANGE =        -119.9399

 PERCENT DISCREPANCY IS DIFFERENCE BETWEEN IN-OUT MINUS CHANGE IN STORAGE
 DIVIDED BY THE AVERAGE OF IN AND OUT TIMES 100

 PERCENT DISCREPANCY =          -0.01     PERCENT DISCREPANCY =          -0.32






1
  VOLUMETRIC BUDGET FOR ENTIRE MODEL AT END OF TIME STEP   15, STRESS PERIOD   5
  ------------------------------------------------------------------------------

     CUMULATIVE VOLUMES      L**3       RATES FOR THIS TIME STEP      L**3/T
     ------------------                 ------------------------

           IN:                                      IN:
           ---                                      ---
             STORAGE     =    50347724.0000               STORAGE     =          49.1304
       CONSTANT HEAD     =           0.0000         CONSTANT HEAD     =           0.0000
               WELLS     =           0.0000                 WELLS     =           0.0000
     HEAD DEP BOUNDS     =     2820819.5000       HEAD DEP BOUNDS     =           0.2135
      STREAM LEAKAGE     =   867445184.0000        STREAM LEAKAGE     =          76.8193
       LAKE  SEEPAGE     =           0.0000         LAKE  SEEPAGE     =           0.0000
        UZF RECHARGE     =   409397696.0000          UZF RECHARGE     =         156.5563
               GW ET     =           0.0000                 GW ET     =           0.0000
     SURFACE LEAKAGE     =           0.0000       SURFACE LEAKAGE     =           0.0000

                TOTAL IN =  1330011392.0000                  TOTAL IN =         282.7195

          OUT:                                     OUT:
          ----                                     ----
             STORAGE     =   647509184.0000               STORAGE     =         188.4065
       CONSTANT HEAD     =           0.0000         CONSTANT HEAD     =           0.0000
               WELLS     =   236520000.0000                 WELLS     =          30.0000
     HEAD DEP BOUNDS     =     3849877.7500       HEAD DEP BOUNDS     =           0.3346
      STREAM LEAKAGE     =   236370032.0000        STREAM LEAKAGE     =          39.3806
       LAKE  SEEPAGE     =           0.0000         LAKE  SEEPAGE     =           0.0000
        UZF RECHARGE     =           0.0000          UZF RECHARGE     =           0.0000
               GW ET     =   165188544.0000                 GW ET     =          14.5622
     SURFACE LEAKAGE     =    40554480.0000       SURFACE LEAKAGE     =          10.0328

               TOTAL OUT =  1329992192.0000                 TOTAL OUT =         282.7167

                IN - OUT =       19200.0000                  IN - OUT =       2.7771E-03

     PERCENT DISCREPANCY =           0.00         PERCENT DISCREPANCY =           0.00






         TIME SUMMARY AT END OF TIME STEP   15 IN STRESS PERIOD    5
                    SECONDS     MINUTES      HOURS       DAYS        YEARS
                    -----------------------------------------------------------
   TIME STEP LENGTH 1.75200E+05  2920.0      48.667      2.0278     5.55175E-03
 STRESS PERIOD TIME 2.62800E+06  43800.      730.00      30.417     8.32763E-02
         TOTAL TIME 1.31400E+07 2.19000E+05  3650.0      152.08     0.41638    
1
1
                            STRESS PERIOD NO.    6, LENGTH =   2628000.    
                            -----------------------------------------------

                              NUMBER OF TIME STEPS =    15

                               MULTIPLIER FOR DELT =     1.000

                            INITIAL TIME STEP SIZE =   175200.0    

      0 WELLS

 REUSING NON-PARAMETER GHB CELLS FROM LAST STRESS PERIOD

      2 GHB CELLS

 REUSING STREAM SEGMENT DATA FROM LAST STRESS PERIOD



            AREAL INFILTRATION RATE
 READING ON UNIT   19 WITH FORMAT: (10F4.0)            

            1           2           3           4           5           6           7           8           9          10
 ........................................................................................................................
   1   1.0000E-08  2.0000E-08   0.000       0.000       0.000       0.000       0.000       0.000       0.000       0.000    
   2   2.0000E-08  1.0000E-08  2.0000E-08   0.000       0.000      8.0000E-08  8.0000E-08  5.0000E-08   0.000       0.000    
   3    0.000      5.0000E-08  1.0000E-08  1.0000E-08  8.0000E-08  8.0000E-08  5.0000E-08  5.0000E-08   0.000       0.000    
   4   8.0000E-08  5.0000E-08  1.0000E-08  1.0000E-08  1.0000E-08  1.0000E-08  1.0000E-08  1.0000E-08  2.0000E-08   0.000    
   5   8.0000E-08  5.0000E-08  1.0000E-08  1.0000E-08  1.0000E-08  1.0000E-08  1.0000E-08  1.0000E-08  1.0000E-08  1.0000E-08
   6   8.0000E-08  5.0000E-08  5.0000E-08  2.0000E-08  2.0000E-08  1.0000E-08  1.0000E-08  1.0000E-08  1.0000E-08  5.0000E-08
   7   8.0000E-08  5.0000E-08  5.0000E-08  2.0000E-08  2.0000E-08  1.0000E-08  1.0000E-08  2.0000E-08  2.0000E-08   0.000    
   8    0.000      5.0000E-08  5.0000E-08  2.0000E-08  2.0000E-08  1.0000E-08  1.0000E-08  2.0000E-08  5.0000E-08   0.000    
   9    0.000      5.0000E-08  5.0000E-08  2.0000E-08  2.0000E-08  1.0000E-08  1.0000E-08  2.0000E-08  5.0000E-08   0.000    
  10    0.000      5.0000E-08  5.0000E-08  2.0000E-08  2.0000E-08  1.0000E-08  1.0000E-08  2.0000E-08  5.0000E-08  8.0000E-08
  11    0.000      1.0000E-08  1.0000E-08  1.0000E-08  1.0000E-08  1.0000E-08  1.0000E-08  2.0000E-08  5.0000E-08   0.000    
  12   1.0000E-08  1.0000E-08  1.0000E-08  1.0000E-08  1.0000E-08  1.0000E-08  1.0000E-08  1.0000E-08  2.0000E-08   0.000    
  13   1.0000E-08  1.0000E-08  2.0000E-08  2.0000E-08  2.0000E-08  2.0000E-08  2.0000E-08  1.0000E-08  1.0000E-08   0.000    
  14    0.000      2.0000E-08  5.0000E-08  5.0000E-08  5.0000E-08  5.0000E-08  5.0000E-08  2.0000E-08  1.0000E-08   0.000    
  15    0.000       0.000      8.0000E-08  8.0000E-08  8.0000E-08  8.0000E-08   0.000       0.000       0.000       0.000    

USING ET RATE FROM PREVIOUS STRESS PERIOD. CURRENT PERIOD IS:       6

 USING ET EXTINCTION DEPTH FROM PREVIOUS STRESS PERIOD. CURRENT PERIOD IS:       6

 USING EXTINCTION WATER CONTENT FROM PREVIOUS STRESS PERIOD. CURRENT PERIOD IS:       6




 If any subsequent steady-state stress periods, min. and max. stages for each lake will be read in Record 9a.




 REUSING LAKE CONFIGURATION DATA FROM LAST STRESS PERIOD


 LAKE       PRECIP     EVAP     RUNOFF   WITHDRAW   BOTTOM     AREA
----------------------------------------------------------------------
   1     0.000E+00 4.000E-08 0.000E+00  0.000E+00 1.074E+03 2.500E+07




         C               INTERFACE CONDUCTANCES BETWEEN LAKE AND AQUIFER CELLS
   L     O          (IF TYPE = 6, CONDUCTANCE (L^2/T) IS BETWEEN AQUIFER CELL AND OVERLYING LAKE CELL.)
   A     L  L  T    (IF TYPE = 1 TO 4, CONDUCTANCES ARE PER UNIT SATURATED THICKNESS (L/T).)
   Y  R  U  A  Y
   E  O  M  K  P                        LAKEBED      C O N D U C T A N C E S
   R  W  N  E  E     DELTA Y   DELTA X  LEAKANCE   LAKEBED   AQUIFER  COMBINED
 _______________________________________________________________________________
   1  4  4  1  2    5.00E+03  5.00E+03  5.00E-02  2.50E+02  6.00E-03  6.00E-03
   1  3  5  1  3    5.00E+03  5.00E+03  5.00E-02  2.50E+02  1.20E-03  1.20E-03
   2  4  5  1  6    5.00E+03  5.00E+03  5.00E-02  1.25E+06  9.42E+00  9.42E+00
   1  5  5  1  4    5.00E+03  5.00E+03  5.00E-02  2.50E+02  6.00E-03  6.00E-03
   1  4  6  1  1    5.00E+03  5.00E+03  5.00E-02  2.50E+02  6.00E-03  6.00E-03
 
      DEAD POOL STORAGE FOR LAKE    1 BELOW SEGMENT   10 IS EQUAL TO     0.1200000000E+09
 
      LAKE     INFLOWING STREAM SEGMENT
         1                  9

 MAXIMUM NUMBER OF STREAMS INFLOWING TO A LAKE IS    1

      LAKE     OUTFLOWING STREAM SEGMENT
         1                 10

 MAXIMUM NUMBER OF STREAMS OUTFLOWING FROM A LAKE IS    1

 
 SOLVING FOR HEAD 
                                                   Max.-Head-Change                         Max.-Flux-Residual
  Residual-Control   Outer-Iter.   Inner-Iter.     Column Row Layer    Maximum-Head-Change  Column Row Layer    Maximum-Flux-Residual          L2-NORM 
          0                 1           2             5    4     2       0.1576232052E+01       5    4    2         0.4567044470E+02      0.5348818568E+02
          0                 2           2             5    4     2       0.4350867925E+00       5    4    2         0.1294567065E+02      0.1303478145E+02
          0                 3           2             5    4     2       0.1166922766E+00       5    4    2         0.3456019714E+01      0.3457611905E+01
          0                 4           2             5    4     2       0.3116723333E-01       5    4    2         0.9239083415E+00      0.9239523729E+00
          0                 5           2             5    4     2       0.8323587109E-02       5    4    2         0.2467047226E+00      0.2467216647E+00
          0                 6           2             5    4     2       0.2223011199E-02       5    4    2         0.6589078713E-01      0.6589497202E-01
          0                 7           1             5    4     2       0.5937065873E-03       5    4    2         0.1759757433E-01      0.1759870810E-01

    ------------------------------------------------
       NWT REQUIRED            7 OUTER ITERATIONS 
       AND A TOTAL OF         13 INNER ITERATIONS.
    ------------------------------------------------

 NO OUTPUT CONTROL FOR STRESS PERIOD    6   TIME STEP    1
 
 SOLVING FOR HEAD 
                                                   Max.-Head-Change                         Max.-Flux-Residual
  Residual-Control   Outer-Iter.   Inner-Iter.     Column Row Layer    Maximum-Head-Change  Column Row Layer    Maximum-Flux-Residual          L2-NORM 
          0                 1           2             5    4     2       0.1116231950E+01       5    4    2         0.3188481209E+02      0.4145638219E+02
          0                 2           2             5    4     2       0.2904442928E+00       5    4    2         0.8676949089E+01      0.8826566399E+01
          0                 3           2             5    4     2       0.7461136196E-01       5    4    2         0.2212112556E+01      0.2214200569E+01
          0                 4           2             5    4     2       0.1920595351E-01       5    4    2         0.5692154676E+00      0.5695727181E+00
          0                 5           2             5    4     2       0.4944467217E-02       5    4    2         0.1465368420E+00      0.1466315520E+00
          0                 6           2             5    4     2       0.1272948413E-02       5    4    2         0.3772585534E-01      0.3775025128E-01
          0                 7           1             5    4     2       0.3277203120E-03       5    4    2         0.9712547698E-02      0.9718814717E-02

    ------------------------------------------------
       NWT REQUIRED            7 OUTER ITERATIONS 
       AND A TOTAL OF         13 INNER ITERATIONS.
    ------------------------------------------------

 NO OUTPUT CONTROL FOR STRESS PERIOD    6   TIME STEP    2
 
 SOLVING FOR HEAD 
                                                   Max.-Head-Change                         Max.-Flux-Residual
  Residual-Control   Outer-Iter.   Inner-Iter.     Column Row Layer    Maximum-Head-Change  Column Row Layer    Maximum-Flux-Residual          L2-NORM 
          0                 1           2             5    4     2       0.7534621479E+00       5    4    2         0.2107211295E+02      0.3372954637E+02
          0                 2           2             5    4     2       0.1884696738E+00       5    4    2         0.5666985021E+01      0.5903045122E+01
          0                 3           2             5    4     2       0.4653626586E-01       5    4    2         0.1379816424E+01      0.1382474247E+01
          0                 4           2             5    4     2       0.1151987774E-01       5    4    2         0.3415444626E+00      0.3417826988E+00
          0                 5           2             5    4     2       0.2851916909E-02       5    4    2         0.8455194070E-01      0.8461159976E-01
          0                 6           1             5    4     2       0.7060431708E-03       5    4    2         0.2093239711E-01      0.2094716048E-01

    ------------------------------------------------
       NWT REQUIRED            6 OUTER ITERATIONS 
       AND A TOTAL OF         11 INNER ITERATIONS.
    ------------------------------------------------

 NO OUTPUT CONTROL FOR STRESS PERIOD    6   TIME STEP    3
 
 SOLVING FOR HEAD 
                                                   Max.-Head-Change                         Max.-Flux-Residual
  Residual-Control   Outer-Iter.   Inner-Iter.     Column Row Layer    Maximum-Head-Change  Column Row Layer    Maximum-Flux-Residual          L2-NORM 
          0                 1           2             5    4     2       0.4636449811E+00       5    4    2         0.1246203785E+02      0.2787735037E+02
          0                 2           2             5    4     2       0.1119103897E+00       5    4    2         0.3394848447E+01      0.3714317551E+01
          0                 3           2             5    4     2       0.2641424637E-01       5    4    2         0.7827701374E+00      0.7858342886E+00
          0                 4           2             5    4     2       0.6260941483E-02       5    4    2         0.1856478993E+00      0.1857957485E+00
          0                 5           2             5    4     2       0.1484022422E-02       5    4    2         0.4400269345E-01      0.4403707109E-01
          0                 6           1             5    4     2       0.3517575179E-03       5    4    2         0.1043001236E-01      0.1043813153E-01

    ------------------------------------------------
       NWT REQUIRED            6 OUTER ITERATIONS 
       AND A TOTAL OF         11 INNER ITERATIONS.
    ------------------------------------------------

 NO OUTPUT CONTROL FOR STRESS PERIOD    6   TIME STEP    4
 
 SOLVING FOR HEAD 
                                                   Max.-Head-Change                         Max.-Flux-Residual
  Residual-Control   Outer-Iter.   Inner-Iter.     Column Row Layer    Maximum-Head-Change  Column Row Layer    Maximum-Flux-Residual          L2-NORM 
          0                 1           2             4    4     2       0.3788286314E+00       4    4    2         0.1072284632E+02      0.2416679453E+02
          0                 2           2             5    4     2       0.5413995757E-01       5    4    2         0.1677680654E+01      0.2172616193E+01
          0                 3           2             5    4     2       0.1212236698E-01       5    4    2         0.3584924293E+00      0.3630033747E+00
          0                 4           2             5    4     2       0.2737375203E-02       5    4    2         0.8116264258E-01      0.8124288135E-01
          0                 5           1             5    4     2       0.6180060819E-03       5    4    2         0.1832319753E-01      0.1834014298E-01

    ------------------------------------------------
       NWT REQUIRED            5 OUTER ITERATIONS 
       AND A TOTAL OF          9 INNER ITERATIONS.
    ------------------------------------------------

 OUTPUT CONTROL FOR STRESS PERIOD    6   TIME STEP    5
    PRINT BUDGET
    SAVE BUDGET

  HEAD DEP BOUNDS   PERIOD    6   STEP     5
 BOUNDARY      1   LAYER   2   ROW    13   COL     1   RATE   -0.321256    
 BOUNDARY      2   LAYER   2   ROW    14   COL     9   RATE    0.213581    



 STREAM LISTING     PERIOD      6   STEP        5

 LAYER ROW COL. STREAM  RCH.  FLOW INTO     FLOW TO   FLOW OUT OF   OVRLND.     DIRECT     STREAM       STREAM     STREAM     STREAM   STREAMBED  STREAMBED
                SEG.NO.  NO.  STRM. RCH.    AQUIFER    STRM. RCH.    RUNOFF     PRECIP       ET          HEAD       DEPTH      WIDTH   CONDCTNC.   GRADIENT

   2    1    1     1     1    1.0000E+02  1.5435E+00   9.8457E+01  0.000E+00  0.000E+00  0.000E+00  1.09484E+03  1.797E+00  2.194E+01  9.875E-01  5.210E-01
   2    2    2     1     2    9.8457E+01  7.1580E+00   9.1299E+01  0.000E+00  0.000E+00  0.000E+00  1.08984E+03  1.781E+00  2.162E+01  1.513E+00  1.577E+00
   2    3    3     1     3    9.1299E+01  6.0241E+00   8.5275E+01  0.000E+00  0.000E+00  0.000E+00  1.08417E+03  1.756E+00  2.111E+01  1.267E+00  1.585E+00
   2    3    4     1     4    8.5275E+01  5.4233E+00   7.9851E+01  0.000E+00  0.000E+00  0.000E+00  1.07914E+03  1.733E+00  2.065E+01  1.146E+00  1.578E+00
   2    4    5     2     1    6.9851E+01  0.0000E+00   6.9851E+01  0.000E+00  0.000E+00  0.000E+00  1.07417E+03  2.237E+00  1.200E+01  0.000E+00  1.746E+00
   2    5    6     2     2    6.9851E+01  3.1241E+00   6.6727E+01  0.000E+00  0.000E+00  0.000E+00  1.06872E+03  2.207E+00  1.200E+01  6.000E-01  1.736E+00
   2    6    6     2     3    6.6727E+01  3.0876E+00   6.3640E+01  0.000E+00  0.000E+00  0.000E+00  1.06394E+03  2.146E+00  1.200E+01  6.000E-01  1.715E+00
   2    7    6     2     4    6.3640E+01  3.0509E+00   6.0589E+01  0.000E+00  0.000E+00  0.000E+00  1.05916E+03  2.085E+00  1.200E+01  6.000E-01  1.695E+00
   2    8    6     2     5    6.0589E+01  3.0139E+00   5.7575E+01  0.000E+00  0.000E+00  0.000E+00  1.05438E+03  2.023E+00  1.200E+01  6.000E-01  1.674E+00
   2    3    5     3     1    1.0000E+01  2.8252E+00   7.1748E+00  0.000E+00  0.000E+00  0.000E+00  1.07555E+03  1.909E+00  9.636E+00  7.227E-01  1.955E+00
   2    3    6     3     2    7.1748E+00  2.4905E+00   4.6843E+00  0.000E+00  0.000E+00  0.000E+00  1.07264E+03  1.727E+00  8.909E+00  6.682E-01  1.864E+00
   2    3    7     3     3    4.6843E+00  1.9718E+00   2.7125E+00  0.000E+00  0.000E+00  0.000E+00  1.06987E+03  1.555E+00  8.218E+00  5.547E-01  1.777E+00
   2    4    8     3     4    2.7125E+00  2.2567E+00   4.5579E-01  0.000E+00  0.000E+00  0.000E+00  1.06682E+03  1.364E+00  7.455E+00  6.709E-01  1.682E+00
   2    5    8     3     5    4.5579E-01  4.5579E-01   0.0000E+00  0.000E+00  0.000E+00  0.000E+00  1.06362E+03  0.000E+00  6.655E+00  4.991E-01  1.582E+00
   2    6    8     3     6    0.0000E+00  0.0000E+00   0.0000E+00  0.000E+00  0.000E+00  0.000E+00  1.06055E+03  0.000E+00  6.145E+00  1.844E-01  1.000E+00
   2    5   10     4     1    1.0000E+01  9.0525E-01   9.0947E+00  0.000E+00  0.000E+00  0.000E+00  1.07835E+03  6.210E-01  1.000E+01  2.500E-01  1.207E+00
   2    5    9     4     2    9.0947E+00  1.7835E+00   7.3113E+00  0.000E+00  0.000E+00  0.000E+00  1.07148E+03  5.670E-01  1.000E+01  5.000E-01  1.189E+00
   2    6    8     4     3    7.3113E+00  1.2257E+00   6.0855E+00  0.000E+00  0.000E+00  0.000E+00  1.06368E+03  5.021E-01  1.000E+01  3.500E-01  1.167E+00
   2    6    8     5     1    6.0855E+00  1.4716E+00   4.6139E+00  0.000E+00  0.000E+00  0.000E+00  1.05854E+03  5.396E-01  1.039E+01  4.158E-01  1.180E+00
   2    7    7     5     2    4.6139E+00  1.4897E+00   3.1242E+00  0.000E+00  0.000E+00  0.000E+00  1.05398E+03  4.817E-01  8.557E+00  4.279E-01  1.161E+00
   2    8    7     5     3    3.1242E+00  8.2855E-01   2.2957E+00  0.000E+00  0.000E+00  0.000E+00  1.04968E+03  4.253E-01  6.911E+00  2.419E-01  1.142E+00
   2    8    6     5     4    2.2957E+00  4.9455E-01   1.8011E+00  0.000E+00  0.000E+00  0.000E+00  1.04664E+03  3.856E-01  5.843E+00  1.461E-01  1.129E+00
   2    9    6     6     1    5.9376E+01  3.0123E+00   5.6364E+01  0.000E+00  0.000E+00  0.000E+00  1.04475E+03  2.020E+00  1.200E+01  6.000E-01  1.673E+00
   2   10    7     6     2    5.6364E+01  2.9742E+00   5.3390E+01  0.000E+00  0.000E+00  0.000E+00  1.04014E+03  1.957E+00  1.200E+01  6.000E-01  1.652E+00
   2   11    7     6     3    5.3390E+01  2.8555E+00   5.0534E+01  0.000E+00  0.000E+00  0.000E+00  1.03553E+03  1.894E+00  1.200E+01  6.000E-01  1.586E+00
   2   12    7     6     4    5.0534E+01  1.1436E+00   4.9390E+01  0.000E+00  0.000E+00  0.000E+00  1.03094E+03  1.850E+00  1.200E+01  6.000E-01  6.354E-01
   2   13    7     6     5    4.9390E+01 -4.2229E-01   4.9813E+01  0.000E+00  0.000E+00  0.000E+00  1.02775E+03  1.842E+00  1.200E+01  2.400E-01 -5.865E-01
   2   14    9     7     1    1.5000E+02  2.7133E+00   1.4729E+02  0.000E+00  0.000E+00  0.000E+00  1.03986E+03  2.284E+00  5.528E+01  5.591E+00  1.618E-01
   2   13    8     7     2    1.4729E+02  3.5501E+00   1.4374E+02  0.000E+00  0.000E+00  0.000E+00  1.03477E+03  2.267E+00  5.520E+01  6.141E+00  1.927E-01
   2   13    7     7     3    1.4374E+02  9.1543E-01   1.4282E+02  0.000E+00  0.000E+00  0.000E+00  1.02967E+03  2.255E+00  5.515E+01  5.577E+00  5.471E-02
   2   13    6     8     1    1.9263E+02 -1.6695E+00   1.9455E+02  2.492E-01  0.000E+00  0.000E+00  1.02497E+03  3.100E+00  4.494E+01  4.580E+00 -1.215E-01
   2   13    5     8     2    1.9455E+02 -3.5109E+00   1.9831E+02  2.492E-01  0.000E+00  0.000E+00  1.01874E+03  3.117E+00  4.519E+01  4.605E+00 -2.541E-01
   2   13    4     8     3    1.9831E+02 -5.5719E+00   2.0413E+02  2.492E-01  0.000E+00  0.000E+00  1.01252E+03  3.145E+00  4.560E+01  4.647E+00 -3.997E-01
   2   13    3     8     4    2.0413E+02 -6.5176E+00   2.1090E+02  2.492E-01  0.000E+00  0.000E+00  1.00631E+03  3.181E+00  4.613E+01  4.701E+00 -4.622E-01
   2   13    2     8     5    2.1090E+02 -7.1058E+00   2.1826E+02  2.492E-01  0.000E+00  0.000E+00  1.00010E+03  3.222E+00  4.671E+01  4.760E+00 -4.976E-01
   2   13    1     8     6    2.1826E+02 -3.8241E+00   2.2223E+02  1.495E-01  0.000E+00  0.000E+00  9.95128E+02  3.253E+00  4.717E+01  2.884E+00 -4.420E-01
   2    4    5     9     1    0.0000E+00  0.0000E+00   0.0000E+00  0.000E+00  0.000E+00  0.000E+00  1.06166E+03  1.659E+00  2.000E+01  0.000E+00 -1.681E+00
   2    4    5    10     1    0.0000E+00  0.0000E+00   0.0000E+00  0.000E+00  0.000E+00  0.000E+00  1.08000E+03  0.000E+00  2.000E+01  2.000E-03  1.000E+00





     0  LAKE CELLS ARE DRY.

 PERIOD     6     TIME STEP     5     TIME STEP LENGTH  1.7520E+05
 PERIOD TIME  8.7600E+05     TOTAL SIMULATION TIME  1.4016E+07


                 HYDROLOGIC BUDGET SUMMARIES FOR SIMULATED LAKES
     (ALL FLUID FLUXES ARE VOLUMES ADDED TO THE LAKE DURING PRESENT TIME STEP)
     ----------------------------------------------------------------------------------------
 LAKE    STAGE         VOLUME     VOL. CHANGE      PRECIP     EVAPORATION    SPECIFIED RUNOFF     COMPUTED RUNOFF    TOTAL RUNOFF
   1  1.079197E+03  2.942868E+07 -8.040712E+06  0.000000E+00  8.642385E+04   0.000000E+00          0.000000E+00      0.000000E+00

            GROUND WATER            SURFACE WATER        WATER          UZF INFIL.
 LAKE    INFLOW     OUTFLOW      INFLOW     OUTFLOW       USE        FROM LAKE
   1  0.0000E+00  0.0000E+00  0.0000E+00  0.0000E+00  0.0000E+00       7.9543E+06

      CONNECTED LAKE   TIME-STEP         STAGE-CHANGE          PERCENT
 LAKE    INFLUX      SURFACE AREA   TIME STEP  CUMULATIVE    DISCREPANCY
   1   0.0000E+00     1.2332E+07  -6.0698E-01  4.6969E+00       0.000
 --------------------------------------------------------------------------------



            CUMULATIVE HYDROLOGIC BUDGET SUMMARIES FOR SIMULATED LAKES
     (ALL FLUID FLUXES ARE SUMS OF VOLUMES ADDED TO THE LAKE SINCE INITIAL TIME)
     ---------------------------------------------------------------------------
 LAKE       PRECIP       EVAP     SPECIFIED RUNOFF   COMPUTED RUNOFF   TOTAL RUNOFF
   1     0.0000E+00  1.2879E+06       0.0000E+00       0.0000E+00       0.0000E+00

            GROUND WATER            SURFACE WATER       UZF INFIL.
 LAKE    INFLOW     OUTFLOW      INFLOW     OUTFLOW     FROM LAKE
   1  0.0000E+00  0.0000E+00  1.9325E+08  4.8785E+07    1.1375E+08

         WATER    CONNECTED LAKE   CHANGE       PERCENT
 LAKE     USE         INFLUX       IN VOL.    DISCREPANCY
   1   0.0000E+00   0.0000E+00   2.9429E+07     -0.000
 --------------------------------------------------------------------------------

 UBDSV3 SAVING "           GW ET" ON UNIT  61 AT TIME STEP 5, STRESS PERIOD 6
 UBDSV3 SAVING "    UZF RECHARGE" ON UNIT  61 AT TIME STEP 5, STRESS PERIOD 6
 UBDSV3 SAVING " SURFACE LEAKAGE" ON UNIT  61 AT TIME STEP 5, STRESS PERIOD 6
 UBDSV3 SAVING "       HORT+DUNN" ON UNIT  61 AT TIME STEP 5, STRESS PERIOD 6
 UBDSV3 SAVING "  STORAGE CHANGE" ON UNIT  61 AT TIME STEP 5, STRESS PERIOD 6


UNSATURATED ZONE PACKAGE VOLUMETRIC BUDGET FOR  TIME STEP     5 STRESS PERIOD    6
  ------------------------------------------------------------------------------



     CUMULATIVE VOLUMES      L**3       RATES FOR THIS TIME STEP      L**3/T
     ------------------                 ------------------------

           IN:                                      IN:
           ---                                      ---
        INFILTRATION =  1143898557.3120          INFILTRATION =         129.6932

          OUT:                                     OUT:
          ----                                     ----
              UZF ET =   981410606.3885                UZF ET =          63.5383
        UZF RECHARGE =   507619478.5805          UZF RECHARGE =          89.9317

            IN - OUT =  -345131527.6570              IN - OUT =         -23.7768

          STORAGE:                                 STORAGE:
          --------                                 --------
      STORAGE CHANGE =  -344513954.8034        STORAGE CHANGE =         -23.7363

 PERCENT DISCREPANCY IS DIFFERENCE BETWEEN IN-OUT MINUS CHANGE IN STORAGE
 DIVIDED BY THE AVERAGE OF IN AND OUT TIMES 100

 PERCENT DISCREPANCY =          -0.01     PERCENT DISCREPANCY =          -0.03






1
  VOLUMETRIC BUDGET FOR ENTIRE MODEL AT END OF TIME STEP    5, STRESS PERIOD   6
  ------------------------------------------------------------------------------

     CUMULATIVE VOLUMES      L**3       RATES FOR THIS TIME STEP      L**3/T
     ------------------                 ------------------------

           IN:                                      IN:
           ---                                      ---
             STORAGE     =    72953200.0000               STORAGE     =          18.8933
       CONSTANT HEAD     =           0.0000         CONSTANT HEAD     =           0.0000
               WELLS     =           0.0000                 WELLS     =           0.0000
     HEAD DEP BOUNDS     =     3007876.7500       HEAD DEP BOUNDS     =           0.2136
      STREAM LEAKAGE     =   930053952.0000        STREAM LEAKAGE     =          67.7885
       LAKE  SEEPAGE     =           0.0000         LAKE  SEEPAGE     =           0.0000
        UZF RECHARGE     =   507619456.0000          UZF RECHARGE     =          89.9317
               GW ET     =           0.0000                 GW ET     =           0.0000
     SURFACE LEAKAGE     =           0.0000       SURFACE LEAKAGE     =           0.0000

                TOTAL IN =  1513634560.0000                  TOTAL IN =         176.8271

          OUT:                                     OUT:
          ----                                     ----
             STORAGE     =   787806976.0000               STORAGE     =         132.3082
       CONSTANT HEAD     =           0.0000         CONSTANT HEAD     =           0.0000
               WELLS     =   236520000.0000                 WELLS     =           0.0000
     HEAD DEP BOUNDS     =     4135220.0000       HEAD DEP BOUNDS     =           0.3213
      STREAM LEAKAGE     =   264113584.0000        STREAM LEAKAGE     =          28.6221
       LAKE  SEEPAGE     =           0.0000         LAKE  SEEPAGE     =           0.0000
        UZF RECHARGE     =           0.0000          UZF RECHARGE     =           0.0000
               GW ET     =   177869808.0000                 GW ET     =          14.3832
     SURFACE LEAKAGE     =    43166084.0000       SURFACE LEAKAGE     =           1.1878

               TOTAL OUT =  1513611648.0000                 TOTAL OUT =         176.8226

                IN - OUT =       22912.0000                  IN - OUT =       4.4708E-03

     PERCENT DISCREPANCY =           0.00         PERCENT DISCREPANCY =           0.00






         TIME SUMMARY AT END OF TIME STEP    5 IN STRESS PERIOD    6
                    SECONDS     MINUTES      HOURS       DAYS        YEARS
                    -----------------------------------------------------------
   TIME STEP LENGTH 1.75200E+05  2920.0      48.667      2.0278     5.55175E-03
 STRESS PERIOD TIME 8.76000E+05  14600.      243.33      10.139     2.77588E-02
         TOTAL TIME 1.40160E+07 2.33600E+05  3893.3      162.22     0.44414    
1
 
 SOLVING FOR HEAD 
                                                   Max.-Head-Change                         Max.-Flux-Residual
  Residual-Control   Outer-Iter.   Inner-Iter.     Column Row Layer    Maximum-Head-Change  Column Row Layer    Maximum-Flux-Residual          L2-NORM 
          0                 1           2             6    4     2       0.3471485840E+00       4    4    2         0.9897036992E+01      0.2195806152E+02
          0                 2           2             5    3     2      -0.1989986142E-01       6    4    2        -0.5013443231E+00      0.1309890791E+01
          0                 3           2             5    4     2       0.2323020874E-02       5    4    2         0.6796796122E-01      0.8062019991E-01
          0                 4           1             5    4     2       0.4974440383E-03       5    4    2         0.1472714048E-01      0.1477554270E-01

    ------------------------------------------------
       NWT REQUIRED            4 OUTER ITERATIONS 
       AND A TOTAL OF          7 INNER ITERATIONS.
    ------------------------------------------------

 NO OUTPUT CONTROL FOR STRESS PERIOD    6   TIME STEP    6
 
 SOLVING FOR HEAD 
                                                   Max.-Head-Change                         Max.-Flux-Residual
  Residual-Control   Outer-Iter.   Inner-Iter.     Column Row Layer    Maximum-Head-Change  Column Row Layer    Maximum-Flux-Residual          L2-NORM 
          0                 1           2             6    4     2       0.3140374895E+00       6    4    2         0.9003493247E+01      0.2120045336E+02
          0                 2           2             5    4     2      -0.1934526081E-01       5    4    2        -0.5250017295E+00      0.1261894908E+01
          0                 3           2             5    4     2      -0.3943383376E-02       5    4    2        -0.1177262281E+00      0.1238758522E+00
          0                 4           1             5    4     2      -0.7880161861E-03       5    4    2        -0.2336968033E-01      0.2339471395E-01

    ------------------------------------------------
       NWT REQUIRED            4 OUTER ITERATIONS 
       AND A TOTAL OF          7 INNER ITERATIONS.
    ------------------------------------------------

 NO OUTPUT CONTROL FOR STRESS PERIOD    6   TIME STEP    7
 
 SOLVING FOR HEAD 
                                                   Max.-Head-Change                         Max.-Flux-Residual
  Residual-Control   Outer-Iter.   Inner-Iter.     Column Row Layer    Maximum-Head-Change  Column Row Layer    Maximum-Flux-Residual          L2-NORM 
          0                 1           2             5    3     2       0.2885562677E+00       6    4    2         0.8094601021E+01      0.2071912185E+02
          0                 2           2             5    4     2      -0.4043186926E-01       5    4    2        -0.1156130511E+01      0.1567906052E+01
          0                 3           2             5    4     2      -0.7552477352E-02       5    4    2        -0.2246862062E+00      0.2272415979E+00
          0                 4           2             5    4     2      -0.1398254194E-02       5    4    2        -0.4145696398E-01      0.4148591019E-01
          0                 5           1             5    4     2      -0.2591096678E-03       5    4    2        -0.7683710946E-02      0.7687543434E-02

    ------------------------------------------------
       NWT REQUIRED            5 OUTER ITERATIONS 
       AND A TOTAL OF          9 INNER ITERATIONS.
    ------------------------------------------------

 NO OUTPUT CONTROL FOR STRESS PERIOD    6   TIME STEP    8
 
 SOLVING FOR HEAD 
                                                   Max.-Head-Change                         Max.-Flux-Residual
  Residual-Control   Outer-Iter.   Inner-Iter.     Column Row Layer    Maximum-Head-Change  Column Row Layer    Maximum-Flux-Residual          L2-NORM 
          0                 1           2             5    4     2      -0.3243521990E+00       5    4    2        -0.1052034538E+02      0.2049304804E+02
          0                 2           2             5    4     2      -0.5341949503E-01       5    4    2        -0.1545807766E+01      0.1810210151E+01
          0                 3           2             5    4     2      -0.9055183228E-02       5    4    2        -0.2688103961E+00      0.2701970858E+00
          0                 4           2             5    4     2      -0.1525297991E-02       5    4    2        -0.4516803899E-01      0.4519979945E-01
          0                 5           1             5    4     2      -0.2571235870E-03       5    4    2        -0.7614968566E-02      0.7619441628E-02

    ------------------------------------------------
       NWT REQUIRED            5 OUTER ITERATIONS 
       AND A TOTAL OF          9 INNER ITERATIONS.
    ------------------------------------------------

 NO OUTPUT CONTROL FOR STRESS PERIOD    6   TIME STEP    9
 
 SOLVING FOR HEAD 
                                                   Max.-Head-Change                         Max.-Flux-Residual
  Residual-Control   Outer-Iter.   Inner-Iter.     Column Row Layer    Maximum-Head-Change  Column Row Layer    Maximum-Flux-Residual          L2-NORM 
          0                 1           2             5    4     2      -0.3976201876E+00       5    4    2        -0.1257123130E+02      0.2405290101E+02
          0                 2           2             5    4     2      -0.5769016796E-01       5    4    2        -0.1676376307E+01      0.2200473123E+01
          0                 3           2             5    4     2      -0.8683338128E-02       5    4    2        -0.2575863556E+00      0.2661063188E+00
          0                 4           2             5    4     2      -0.1322910968E-02       5    4    2        -0.3915565625E-01      0.3920733863E-01
          0                 5           1             5    4     2      -0.2017007205E-03       5    4    2        -0.5970608249E-02      0.5974845612E-02

    ------------------------------------------------
       NWT REQUIRED            5 OUTER ITERATIONS 
       AND A TOTAL OF          9 INNER ITERATIONS.
    ------------------------------------------------

 OUTPUT CONTROL FOR STRESS PERIOD    6   TIME STEP   10
    PRINT BUDGET
    SAVE BUDGET

  HEAD DEP BOUNDS   PERIOD    6   STEP    10
 BOUNDARY      1   LAYER   2   ROW    13   COL     1   RATE   -0.314258    
 BOUNDARY      2   LAYER   2   ROW    14   COL     9   RATE    0.213738    



 STREAM LISTING     PERIOD      6   STEP       10

 LAYER ROW COL. STREAM  RCH.  FLOW INTO     FLOW TO   FLOW OUT OF   OVRLND.     DIRECT     STREAM       STREAM     STREAM     STREAM   STREAMBED  STREAMBED
                SEG.NO.  NO.  STRM. RCH.    AQUIFER    STRM. RCH.    RUNOFF     PRECIP       ET          HEAD       DEPTH      WIDTH   CONDCTNC.   GRADIENT

   2    1    1     1     1    2.9880E+02  3.8940E+00   2.9491E+02  0.000E+00  0.000E+00  0.000E+00  1.09575E+03  2.700E+00  3.312E+01  1.491E+00  8.709E-01
   2    2    2     1     2    2.9491E+02  1.3001E+01   2.8190E+02  0.000E+00  0.000E+00  0.000E+00  1.09073E+03  2.671E+00  3.276E+01  2.294E+00  1.889E+00
   2    3    3     1     3    2.8190E+02  1.0892E+01   2.7101E+02  0.000E+00  0.000E+00  0.000E+00  1.08505E+03  2.629E+00  3.225E+01  1.935E+00  1.876E+00
   2    3    4     1     4    2.7101E+02  9.8652E+00   2.6115E+02  0.000E+00  0.000E+00  0.000E+00  1.08000E+03  2.592E+00  3.179E+01  1.764E+00  1.864E+00
   2    4    5     2     1    2.5115E+02  0.0000E+00   2.5115E+02  0.000E+00  0.000E+00  0.000E+00  1.07675E+03  4.821E+00  1.200E+01  0.000E+00  2.607E+00
   2    5    6     2     2    2.5115E+02  4.6762E+00   2.4647E+02  0.000E+00  0.000E+00  0.000E+00  1.07130E+03  4.794E+00  1.200E+01  6.000E-01  2.598E+00
   2    6    6     2     3    2.4647E+02  4.6437E+00   2.4183E+02  0.000E+00  0.000E+00  0.000E+00  1.06653E+03  4.740E+00  1.200E+01  6.000E-01  2.580E+00
   2    7    6     2     4    2.4183E+02  4.6113E+00   2.3722E+02  0.000E+00  0.000E+00  0.000E+00  1.06176E+03  4.685E+00  1.200E+01  6.000E-01  2.562E+00
   2    8    6     2     5    2.3722E+02  4.5788E+00   2.3264E+02  0.000E+00  0.000E+00  0.000E+00  1.05699E+03  4.631E+00  1.200E+01  6.000E-01  2.544E+00
   2    3    5     3     1    1.0000E+01  2.8252E+00   7.1748E+00  0.000E+00  0.000E+00  0.000E+00  1.07555E+03  1.909E+00  9.636E+00  7.227E-01  1.955E+00
   2    3    6     3     2    7.1748E+00  2.4905E+00   4.6843E+00  0.000E+00  0.000E+00  0.000E+00  1.07264E+03  1.727E+00  8.909E+00  6.682E-01  1.864E+00
   2    3    7     3     3    4.6843E+00  1.9718E+00   2.7125E+00  0.000E+00  0.000E+00  0.000E+00  1.06987E+03  1.555E+00  8.218E+00  5.547E-01  1.777E+00
   2    4    8     3     4    2.7125E+00  2.2567E+00   4.5579E-01  0.000E+00  0.000E+00  0.000E+00  1.06682E+03  1.364E+00  7.455E+00  6.709E-01  1.682E+00
   2    5    8     3     5    4.5579E-01  4.5579E-01   0.0000E+00  0.000E+00  0.000E+00  0.000E+00  1.06362E+03  0.000E+00  6.655E+00  4.991E-01  1.582E+00
   2    6    8     3     6    0.0000E+00  0.0000E+00   0.0000E+00  0.000E+00  0.000E+00  0.000E+00  1.06055E+03  0.000E+00  6.145E+00  1.844E-01  1.000E+00
   2    5   10     4     1    1.0000E+01  9.0525E-01   9.0947E+00  0.000E+00  0.000E+00  0.000E+00  1.07835E+03  6.210E-01  1.000E+01  2.500E-01  1.207E+00
   2    5    9     4     2    9.0947E+00  1.7835E+00   7.3113E+00  0.000E+00  0.000E+00  0.000E+00  1.07148E+03  5.670E-01  1.000E+01  5.000E-01  1.189E+00
   2    6    8     4     3    7.3113E+00  1.2257E+00   6.0855E+00  0.000E+00  0.000E+00  0.000E+00  1.06368E+03  5.021E-01  1.000E+01  3.500E-01  1.167E+00
   2    6    8     5     1    6.0855E+00  1.4716E+00   4.6139E+00  0.000E+00  0.000E+00  0.000E+00  1.05854E+03  5.396E-01  1.039E+01  4.158E-01  1.180E+00
   2    7    7     5     2    4.6139E+00  1.4897E+00   3.1242E+00  0.000E+00  0.000E+00  0.000E+00  1.05398E+03  4.817E-01  8.557E+00  4.279E-01  1.161E+00
   2    8    7     5     3    3.1242E+00  8.2855E-01   2.2957E+00  0.000E+00  0.000E+00  0.000E+00  1.04968E+03  4.253E-01  6.911E+00  2.419E-01  1.142E+00
   2    8    6     5     4    2.2957E+00  4.9455E-01   1.8011E+00  0.000E+00  0.000E+00  0.000E+00  1.04664E+03  3.856E-01  5.843E+00  1.461E-01  1.129E+00
   2    9    6     6     1    2.3444E+02  4.5898E+00   2.2985E+02  0.000E+00  0.000E+00  0.000E+00  1.04738E+03  4.650E+00  1.200E+01  6.000E-01  2.550E+00
   2   10    7     6     2    2.2985E+02  4.5567E+00   2.2529E+02  0.000E+00  0.000E+00  0.000E+00  1.04278E+03  4.595E+00  1.200E+01  6.000E-01  2.532E+00
   2   11    7     6     3    2.2529E+02  4.3815E+00   2.2091E+02  0.000E+00  0.000E+00  0.000E+00  1.03818E+03  4.540E+00  1.200E+01  6.000E-01  2.434E+00
   2   12    7     6     4    2.2091E+02  2.7451E+00   2.1817E+02  0.000E+00  0.000E+00  0.000E+00  1.03359E+03  4.497E+00  1.200E+01  6.000E-01  1.525E+00
   2   13    7     6     5    2.1817E+02  2.2521E-01   2.1794E+02  0.000E+00  0.000E+00  0.000E+00  1.03039E+03  4.478E+00  1.200E+01  2.400E-01  3.128E-01
   2   14    9     7     1    1.5000E+02  2.7361E+00   1.4726E+02  0.000E+00  0.000E+00  0.000E+00  1.03986E+03  2.284E+00  5.528E+01  5.591E+00  1.631E-01
   2   13    8     7     2    1.4726E+02  3.5919E+00   1.4367E+02  0.000E+00  0.000E+00  0.000E+00  1.03477E+03  2.267E+00  5.520E+01  6.141E+00  1.950E-01
   2   13    7     7     3    1.4367E+02  1.2518E+00   1.4242E+02  0.000E+00  0.000E+00  0.000E+00  1.02967E+03  2.254E+00  5.514E+01  5.576E+00  7.482E-02
   2   13    6     8     1    3.6036E+02  4.2333E+00   3.5636E+02  2.330E-01  0.000E+00  0.000E+00  1.02578E+03  3.905E+00  5.662E+01  5.770E+00  2.446E-01
   2   13    5     8     2    3.5636E+02  5.8180E-01   3.5601E+02  2.330E-01  0.000E+00  0.000E+00  1.01952E+03  3.896E+00  5.649E+01  5.757E+00  3.369E-02
   2   13    4     8     3    3.5601E+02 -2.5743E+00   3.5882E+02  2.330E-01  0.000E+00  0.000E+00  1.01328E+03  3.901E+00  5.656E+01  5.764E+00 -1.489E-01
   2   13    3     8     4    3.5882E+02 -3.6755E+00   3.6273E+02  2.330E-01  0.000E+00  0.000E+00  1.00704E+03  3.915E+00  5.676E+01  5.784E+00 -2.118E-01
   2   13    2     8     5    3.6273E+02 -2.2072E+00   3.6517E+02  2.330E-01  0.000E+00  0.000E+00  1.00080E+03  3.928E+00  5.695E+01  5.803E+00 -1.268E-01
   2   13    1     8     6    3.6517E+02 -1.6016E+00   3.6691E+02  1.398E-01  0.000E+00  0.000E+00  9.95811E+02  3.936E+00  5.707E+01  3.489E+00 -1.530E-01
   2    4    5     9     1    0.0000E+00  0.0000E+00   0.0000E+00  0.000E+00  0.000E+00  0.000E+00  1.06136E+03  1.361E+00  2.000E+01  0.000E+00 -1.379E+00
   2    4    5    10     1    0.0000E+00  0.0000E+00   0.0000E+00  0.000E+00  0.000E+00  0.000E+00  1.08000E+03  0.000E+00  2.000E+01  2.000E-03  1.000E+00





     0  LAKE CELLS ARE DRY.

 PERIOD     6     TIME STEP    10     TIME STEP LENGTH  1.7520E+05
 PERIOD TIME  1.7520E+06     TOTAL SIMULATION TIME  1.4892E+07


                 HYDROLOGIC BUDGET SUMMARIES FOR SIMULATED LAKES
     (ALL FLUID FLUXES ARE VOLUMES ADDED TO THE LAKE DURING PRESENT TIME STEP)
     ----------------------------------------------------------------------------------------
 LAKE    STAGE         VOLUME     VOL. CHANGE      PRECIP     EVAPORATION    SPECIFIED RUNOFF     COMPUTED RUNOFF    TOTAL RUNOFF
   1  1.076246E+03  4.159236E+06 -3.103035E+06  0.000000E+00  3.220807E+04   0.000000E+00          0.000000E+00      0.000000E+00

            GROUND WATER            SURFACE WATER        WATER          UZF INFIL.
 LAKE    INFLOW     OUTFLOW      INFLOW     OUTFLOW       USE        FROM LAKE
   1  0.0000E+00  0.0000E+00  0.0000E+00  0.0000E+00  0.0000E+00       3.0708E+06

      CONNECTED LAKE   TIME-STEP         STAGE-CHANGE          PERCENT
 LAKE    INFLUX      SURFACE AREA   TIME STEP  CUMULATIVE    DISCREPANCY
   1   0.0000E+00     4.5959E+06  -5.7202E-01  1.7457E+00       0.000
 --------------------------------------------------------------------------------



            CUMULATIVE HYDROLOGIC BUDGET SUMMARIES FOR SIMULATED LAKES
     (ALL FLUID FLUXES ARE SUMS OF VOLUMES ADDED TO THE LAKE SINCE INITIAL TIME)
     ---------------------------------------------------------------------------
 LAKE       PRECIP       EVAP     SPECIFIED RUNOFF   COMPUTED RUNOFF   TOTAL RUNOFF
   1     0.0000E+00  1.5563E+06       0.0000E+00       0.0000E+00       0.0000E+00

            GROUND WATER            SURFACE WATER       UZF INFIL.
 LAKE    INFLOW     OUTFLOW      INFLOW     OUTFLOW     FROM LAKE
   1  0.0000E+00  0.0000E+00  1.9325E+08  4.8785E+07    1.3875E+08

         WATER    CONNECTED LAKE   CHANGE       PERCENT
 LAKE     USE         INFLUX       IN VOL.    DISCREPANCY
   1   0.0000E+00   0.0000E+00   4.1592E+06     -0.000
 --------------------------------------------------------------------------------

 UBDSV3 SAVING "           GW ET" ON UNIT  61 AT TIME STEP 10, STRESS PERIOD 6
 UBDSV3 SAVING "    UZF RECHARGE" ON UNIT  61 AT TIME STEP 10, STRESS PERIOD 6
 UBDSV3 SAVING " SURFACE LEAKAGE" ON UNIT  61 AT TIME STEP 10, STRESS PERIOD 6
 UBDSV3 SAVING "       HORT+DUNN" ON UNIT  61 AT TIME STEP 10, STRESS PERIOD 6
 UBDSV3 SAVING "  STORAGE CHANGE" ON UNIT  61 AT TIME STEP 10, STRESS PERIOD 6


UNSATURATED ZONE PACKAGE VOLUMETRIC BUDGET FOR  TIME STEP    10 STRESS PERIOD    6
  ------------------------------------------------------------------------------



     CUMULATIVE VOLUMES      L**3       RATES FOR THIS TIME STEP      L**3/T
     ------------------                 ------------------------

           IN:                                      IN:
           ---                                      ---
        INFILTRATION =  1242778693.8354          INFILTRATION =         101.8287

          OUT:                                     OUT:
          ----                                     ----
              UZF ET =  1033180183.2346                UZF ET =          60.8678
        UZF RECHARGE =   565583770.7105          UZF RECHARGE =          53.5085

            IN - OUT =  -355985260.1097              IN - OUT =         -12.5475

          STORAGE:                                 STORAGE:
          --------                                 --------
      STORAGE CHANGE =  -355332128.3739        STORAGE CHANGE =         -12.5067

 PERCENT DISCREPANCY IS DIFFERENCE BETWEEN IN-OUT MINUS CHANGE IN STORAGE
 DIVIDED BY THE AVERAGE OF IN AND OUT TIMES 100

 PERCENT DISCREPANCY =          -0.01     PERCENT DISCREPANCY =          -0.04






1
  VOLUMETRIC BUDGET FOR ENTIRE MODEL AT END OF TIME STEP   10, STRESS PERIOD   6
  ------------------------------------------------------------------------------

     CUMULATIVE VOLUMES      L**3       RATES FOR THIS TIME STEP      L**3/T
     ------------------                 ------------------------

           IN:                                      IN:
           ---                                      ---
             STORAGE     =    89858384.0000               STORAGE     =          13.5432
       CONSTANT HEAD     =           0.0000         CONSTANT HEAD     =           0.0000
               WELLS     =           0.0000                 WELLS     =           0.0000
     HEAD DEP BOUNDS     =     3195044.0000       HEAD DEP BOUNDS     =           0.2137
      STREAM LEAKAGE     =   993095872.0000        STREAM LEAKAGE     =         103.2533
       LAKE  SEEPAGE     =           0.0000         LAKE  SEEPAGE     =           0.0000
        UZF RECHARGE     =   565583744.0000          UZF RECHARGE     =          53.5085
               GW ET     =           0.0000                 GW ET     =           0.0000
     SURFACE LEAKAGE     =           0.0000       SURFACE LEAKAGE     =           0.0000

                TOTAL IN =  1651732992.0000                  TOTAL IN =         170.5188

          OUT:                                     OUT:
          ----                                     ----
             STORAGE     =   891995264.0000               STORAGE     =         144.4440
       CONSTANT HEAD     =           0.0000         CONSTANT HEAD     =           0.0000
               WELLS     =   236520000.0000                 WELLS     =           0.0000
     HEAD DEP BOUNDS     =     4411883.5000       HEAD DEP BOUNDS     =           0.3143
      STREAM LEAKAGE     =   284452672.0000        STREAM LEAKAGE     =          10.0586
       LAKE  SEEPAGE     =           0.0000         LAKE  SEEPAGE     =           0.0000
        UZF RECHARGE     =           0.0000          UZF RECHARGE     =           0.0000
               GW ET     =   190495536.0000                 GW ET     =          14.5968
     SURFACE LEAKAGE     =    43835868.0000       SURFACE LEAKAGE     =           1.1061

               TOTAL OUT =  1651711232.0000                 TOTAL OUT =         170.5197

                IN - OUT =       21760.0000                  IN - OUT =      -9.9182E-04

     PERCENT DISCREPANCY =           0.00         PERCENT DISCREPANCY =          -0.00






         TIME SUMMARY AT END OF TIME STEP   10 IN STRESS PERIOD    6
                    SECONDS     MINUTES      HOURS       DAYS        YEARS
                    -----------------------------------------------------------
   TIME STEP LENGTH 1.75200E+05  2920.0      48.667      2.0278     5.55175E-03
 STRESS PERIOD TIME 1.75200E+06  29200.      486.67      20.278     5.55175E-02
         TOTAL TIME 1.48920E+07 2.48200E+05  4136.7      172.36     0.47190    
1
 
 SOLVING FOR HEAD 
                                                   Max.-Head-Change                         Max.-Flux-Residual
  Residual-Control   Outer-Iter.   Inner-Iter.     Column Row Layer    Maximum-Head-Change  Column Row Layer    Maximum-Flux-Residual          L2-NORM 
          0                 1           2             5    4     2      -0.4697731517E+00       5    4    2        -0.1461446995E+02      0.3086561186E+02
          0                 2           2             5    4     2      -0.6862938913E-01       5    4    2        -0.2004629216E+01      0.2992014887E+01
          0                 3           2             5    4     2      -0.1025379107E-01       5    4    2        -0.3038824092E+00      0.3243412341E+00
          0                 4           2             5    4     2      -0.1525603155E-02       5    4    2        -0.4514038296E-01      0.4522995422E-01
          0                 5           1             5    4     2      -0.2271207679E-03       5    4    2        -0.6720466791E-02      0.6725569959E-02

    ------------------------------------------------
       NWT REQUIRED            5 OUTER ITERATIONS 
       AND A TOTAL OF          9 INNER ITERATIONS.
    ------------------------------------------------

 NO OUTPUT CONTROL FOR STRESS PERIOD    6   TIME STEP   11
 
 SOLVING FOR HEAD 
                                                   Max.-Head-Change                         Max.-Flux-Residual
  Residual-Control   Outer-Iter.   Inner-Iter.     Column Row Layer    Maximum-Head-Change  Column Row Layer    Maximum-Flux-Residual          L2-NORM 
          0                 1           2             5    4     2      -0.5104328543E+00       5    4    2        -0.1571988194E+02      0.2928839058E+02
          0                 2           2             5    4     2      -0.6268641489E-01       5    4    2        -0.1831878630E+01      0.2711920994E+01
          0                 3           2             5    4     2      -0.7867779637E-02       5    4    2        -0.2330482687E+00      0.2546597580E+00
          0                 4           1             5    4     2      -0.9829840119E-03       5    4    2        -0.2906216990E-01      0.2915968802E-01

    ------------------------------------------------
       NWT REQUIRED            4 OUTER ITERATIONS 
       AND A TOTAL OF          7 INNER ITERATIONS.
    ------------------------------------------------

 NO OUTPUT CONTROL FOR STRESS PERIOD    6   TIME STEP   12
 
 SOLVING FOR HEAD 
                                                   Max.-Head-Change                         Max.-Flux-Residual
  Residual-Control   Outer-Iter.   Inner-Iter.     Column Row Layer    Maximum-Head-Change  Column Row Layer    Maximum-Flux-Residual          L2-NORM 
          0                 1           2             5    4     2      -0.4942167146E+00       5    4    2        -0.1514238147E+02      0.2738829707E+02
          0                 2           2             5    4     2      -0.4945903034E-01       5    4    2        -0.1443549278E+01      0.2308468139E+01
          0                 3           2             5    4     2       0.2340780153E+00       5    4    2         0.7209218236E+01      0.7215595345E+01
          0                 4           2             5    4     2      -0.1994664705E+00       5    4    2        -0.6371847215E+01      0.6379960003E+01
          0                 5           2             5    4     2       0.1897006114E+00       5    4    2         0.6291116762E+01      0.6298774550E+01
          0                 6           2             5    4     2      -0.1777753368E+00       5    4    2        -0.6110513451E+01      0.6117835990E+01
          0                 7           2             5    4     2       0.1674468501E+00       5    4    2         0.5973705869E+01      0.5980710614E+01
          0                 8           2             5    4     2      -0.1578483261E+00       5    4    2        -0.5834554493E+01      0.5841286616E+01
          0                 9           2             5    4     2       0.1490962621E+00       5    4    2         0.5718209501E+01      0.5724695787E+01
          0                10           2             5    4     2      -0.1410217368E+00       5    4    2        -0.5601816263E+01      0.5608085934E+01
                                                   Max.-Head-Change                         Max.-Flux-Residual
  Residual-Control   Outer-Iter.   Inner-Iter.     Column Row Layer    Maximum-Head-Change  Column Row Layer    Maximum-Flux-Residual          L2-NORM 
          0                11           2             5    4     2       0.1335675192E+00       5    4    2         0.5503296333E+01      0.5509368891E+01
          0                12           2             5    4     2      -0.1266746426E+00       5    4    2        -0.5403820816E+01      0.5409718966E+01
          0                13           2             5    4     2       0.1202723313E+00       5    4    2         0.5319847130E+01      0.5325583662E+01
          0                14           2             5    4     2      -0.1143306010E+00       5    4    2        -0.5233779072E+01      0.5239372609E+01
          0                15           2             5    4     2       0.1087895923E+00       5    4    2         0.5161721415E+01      0.5167180289E+01
          0                16           2             5    4     2      -0.1036292675E+00       5    4    2        -0.5086622641E+01      0.5091962684E+01
          0                17           2             5    4     2       0.9880101929E-01       5    4    2         0.5024397866E+01      0.5029624122E+01
          0                18           2             5    4     2      -0.9429075556E-01       5    4    2        -0.4958402540E+01      0.4963529138E+01
          0                19           2             5    4     2       0.9005871169E-01       5    4    2         0.4904378405E+01      0.4909407415E+01
          0                20           2             5    4     2      -0.8609487267E-01       5    4    2        -0.4846020656E+01      0.4850965222E+01
                                                   Max.-Head-Change                         Max.-Flux-Residual
  Residual-Control   Outer-Iter.   Inner-Iter.     Column Row Layer    Maximum-Head-Change  Column Row Layer    Maximum-Flux-Residual          L2-NORM 
          0                21           2             5    4     2       0.8236632050E-01       5    4    2         0.4798903253E+01      0.4803763650E+01
          0                22           2             5    4     2      -0.7886594020E-01       5    4    2        -0.4747012989E+01      0.4751801210E+01
          0                23           2             5    4     2       0.7556617471E-01       5    4    2         0.4705763313E+01      0.4710478209E+01
          0                24           2             5    4     2      -0.7246200482E-01       5    4    2        -0.4659394362E+01      0.4664047229E+01
          0                25           2             5    4     2       0.6953012982E-01       5    4    2         0.4623168162E+01      0.4627756509E+01
          0                26           2             5    4     2      -0.6676705999E-01       5    4    2        -0.4581546711E+01      0.4586081363E+01
          0                27           2             5    4     2       0.6415291870E-01       5    4    2         0.4549650659E+01      0.4554128331E+01
          0                28           2             5    4     2      -0.6168534012E-01       5    4    2        -0.4512137448E+01      0.4516568565E+01
          0                29           2             5    4     2       0.5934723511E-01       5    4    2         0.4483996697E+01      0.4488377259E+01
          0                30           2             5    4     2      -0.5713706743E-01       5    4    2        -0.4450058826E+01      0.4454398659E+01
                                                   Max.-Head-Change                         Max.-Flux-Residual
  Residual-Control   Outer-Iter.   Inner-Iter.     Column Row Layer    Maximum-Head-Change  Column Row Layer    Maximum-Flux-Residual          L2-NORM 
          0                31           2             5    4     2       0.5504004172E-01       5    4    2         0.4425192643E+01      0.4429487250E+01
          0                32           2             5    4     2      -0.5305523553E-01       5    4    2        -0.4394382233E+01      0.4398641284E+01
          0                33           2             5    4     2       0.5116975933E-01       5    4    2         0.4372385442E+01      0.4376603862E+01
          0                34           2             5    4     2      -0.4938314487E-01       5    4    2        -0.4344323274E+01      0.4348510524E+01
          0                35           2             5    4     2       0.4768409997E-01       5    4    2         0.4324851958E+01      0.4329002545E+01
          0                36           2             5    4     2      -0.4607249168E-01       5    4    2        -0.4299214780E+01      0.4303337971E+01
          0                37           2             5    4     2       0.4453837731E-01       5    4    2         0.4281975121E+01      0.4286065203E+01
          0                38           2             5    4     2      -0.4308187007E-01       5    4    2        -0.4258485690E+01      0.4262551787E+01
          0                39           2             5    4     2       0.4169417558E-01       5    4    2         0.4243225192E+01      0.4247261113E+01
          0                40           2             5    4     2      -0.4037558607E-01       5    4    2        -0.4221644388E+01      0.4225659102E+01
                                                   Max.-Head-Change                         Max.-Flux-Residual
  Residual-Control   Outer-Iter.   Inner-Iter.     Column Row Layer    Maximum-Head-Change  Column Row Layer    Maximum-Flux-Residual          L2-NORM 
          0                41           2             5    4     2       0.3911829072E-01       5    4    2         0.4208144884E+01      0.4212132023E+01
          0                42           2             5    4     2      -0.3792271005E-01       5    4    2        -0.4188265401E+01      0.4192233924E+01
          0                43           2             5    4     2       0.3678188074E-01       5    4    2         0.4176337450E+01      0.4180280643E+01
          0                44           2             5    4     2      -0.3569631317E-01       5    4    2        -0.4157978715E+01      0.4161905544E+01
          0                45           2             5    4     2       0.3465977831E-01       5    4    2         0.4147457066E+01      0.4151360803E+01
          0                46           2             5    4     2      -0.3367284725E-01       5    4    2        -0.4130461105E+01      0.4134350344E+01
          0                47           2             5    4     2       0.3272993034E-01       5    4    2         0.4121201001E+01      0.4125068925E+01
          0                48           2             5    4     2      -0.3183163733E-01       5    4    2        -0.4105429060E+01      0.4109284328E+01
          0                49           2             5    4     2       0.3097293792E-01       5    4    2         0.4097303204E+01      0.4101138906E+01
          0                50           2             5    4     2      -0.3015446376E-01       5    4    2        -0.4082632960E+01      0.4086457482E+01
                                                   Max.-Head-Change                         Max.-Flux-Residual
  Residual-Control   Outer-Iter.   Inner-Iter.     Column Row Layer    Maximum-Head-Change  Column Row Layer    Maximum-Flux-Residual          L2-NORM 
          0                51           2             5    4     2       0.2937167599E-01       5    4    2         0.4075529008E+01      0.4079335298E+01
          0                52           2             5    4     2      -0.2862521555E-01       5    4    2        -0.4061852258E+01      0.4065648913E+01
          0                53           2             5    4     2       0.2791097709E-01       5    4    2         0.4055670735E+01      0.4059450396E+01
          0                54           2             5    4     2      -0.2722960139E-01       5    4    2        -0.4042891464E+01      0.4046662783E+01
          0                55           2             5    4     2       0.2657736685E-01       5    4    2         0.4037544020E+01      0.4041299404E+01
          0                56           2             5    4     2      -0.2595490708E-01       5    4    2        -0.4025576786E+01      0.4029324897E+01
          0                57           2             5    4     2       0.2535884138E-01       5    4    2         0.4020984730E+01      0.4024718118E+01
          0                58           2             5    4     2      -0.2478979103E-01       5    4    2        -0.4009753294E+01      0.4013480416E+01
          0                59           2             5    4     2       0.2424467913E-01       5    4    2         0.4005846354E+01      0.4009559670E+01
          0                60           2             5    4     2      -0.2372411089E-01       5    4    2        -0.3995282522E+01      0.3998990514E+01
                                                   Max.-Head-Change                         Max.-Flux-Residual
  Residual-Control   Outer-Iter.   Inner-Iter.     Column Row Layer    Maximum-Head-Change  Column Row Layer    Maximum-Flux-Residual          L2-NORM 
          0                61           2             5    4     2       0.2322528096E-01       5    4    2         0.3991997796E+01      0.3995692731E+01
          0                62           2             5    4     2      -0.2274877587E-01       5    4    2        -0.3982040432E+01      0.3985730931E+01
          0                63           2             5    4     2       0.2229203364E-01       5    4    2         0.3979321485E+01      0.3982999785E+01
          0                64           2             5    4     2      -0.2185562039E-01       5    4    2        -0.3969915667E+01      0.3973590168E+01
          0                65           2             5    4     2       0.2143719282E-01       5    4    2         0.3967711762E+01      0.3971374757E+01
          0                66           2             5    4     2      -0.2103729549E-01       5    4    2        -0.3958808052E+01      0.3962467916E+01
          0                67           2             5    4     2       0.2065378215E-01       5    4    2         0.3957073489E+01      0.3960722581E+01
          0                68           2             5    4     2      -0.2028717519E-01       5    4    2        -0.3948627309E+01      0.3952273837E+01
          0                69           2             5    4     2       0.1993550622E-01       5    4    2         0.3947320850E+01      0.3950957124E+01
          0                70           2             5    4     2      -0.1959927525E-01       5    4    2        -0.3939291937E+01      0.3942926264E+01
                                                   Max.-Head-Change                         Max.-Flux-Residual
  Residual-Control   Outer-Iter.   Inner-Iter.     Column Row Layer    Maximum-Head-Change  Column Row Layer    Maximum-Flux-Residual          L2-NORM 
          0                71           2             5    4     2       0.1927667486E-01       5    4    2         0.3938376308E+01      0.3942000831E+01
          0                72           2             5    4     2      -0.1896818271E-01       5    4    2        -0.3930728242E+01      0.3934351382E+01
          0                73           2             5    4     2       0.1867213733E-01       5    4    2         0.3930169704E+01      0.3933783547E+01
          0                74           2             5    4     2      -0.1838899428E-01       5    4    2        -0.3922869493E+01      0.3926482435E+01
          0                75           2             5    4     2       0.1811722470E-01       5    4    2         0.3922637460E+01      0.3926241506E+01
          0                76           2             5    4     2      -0.1785726247E-01       5    4    2        -0.3915655181E+01      0.3919258680E+01
          0                77           2             5    4     2       0.1760769941E-01       5    4    2         0.3915721892E+01      0.3919316929E+01
          0                78           2             5    4     2      -0.1736894827E-01       5    4    2        -0.3909030372E+01      0.3912625361E+01
          0                79           2             5    4     2       0.1713971090E-01       5    4    2         0.3909370596E+01      0.3912957387E+01
          0                80           2             5    4     2      -0.1692037950E-01       5    4    2        -0.3902945134E+01      0.3906532154E+01
                                                   Max.-Head-Change                         Max.-Flux-Residual
  Residual-Control   Outer-Iter.   Inner-Iter.     Column Row Layer    Maximum-Head-Change  Column Row Layer    Maximum-Flux-Residual          L2-NORM 
          0                81           2             5    4     2       0.1670975643E-01       5    4    2         0.3903535918E+01      0.3907115155E+01
          0                82           2             5    4     2      -0.1650821400E-01       5    4    2        -0.3897354033E+01      0.3900933821E+01
          0                83           2             5    4     2       0.1631464648E-01       5    4    2         0.3898174471E+01      0.3901746663E+01
          0                84           2             5    4     2      -0.1612940698E-01       5    4    2        -0.3892215690E+01      0.3895788816E+01
          0                85           2             5    4     2       0.1595147400E-01       5    4    2         0.3893246723E+01      0.3896812694E+01
          0                86           2             5    4     2      -0.1578118217E-01       5    4    2        -0.3887492381E+01      0.3891059495E+01
          0                87           2             5    4     2       0.1561758720E-01       5    4    2         0.3888716619E+01      0.3892276682E+01
          0                88           2             5    4     2      -0.1546100597E-01       5    4    2        -0.3883149688E+01      0.3886711128E+01
          0                89           2             5    4     2       0.1531056514E-01       5    4    2         0.3884551249E+01      0.3888105953E+01
          0                90           2             5    4     2      -0.1516656454E-01       5    4    2        -0.3879156181E+01      0.3882712523E+01
                                                   Max.-Head-Change                         Max.-Flux-Residual
  Residual-Control   Outer-Iter.   Inner-Iter.     Column Row Layer    Maximum-Head-Change  Column Row Layer    Maximum-Flux-Residual          L2-NORM 
          0                91           2             5    4     2       0.1502819606E-01       5    4    2         0.3880720554E+01      0.3884270332E+01
          0                92           2             5    4     2      -0.1489574321E-01       5    4    2        -0.3875483144E+01      0.3879034709E+01
          0                93           2             5    4     2       0.1476845792E-01       5    4    2         0.3877197054E+01      0.3880742313E+01
          0                94           2             5    4     2      -0.1464660810E-01       5    4    2        -0.3872104318E+01      0.3875651596E+01
          0                95           2             5    4     2       0.1452950100E-01       5    4    2         0.3873955618E+01      0.3877496636E+01
          0                96           2             5    4     2      -0.1441738960E-01       5    4    2        -0.3868995678E+01      0.3872538911E+01
          0                97           2             5    4     2       0.1430963221E-01       5    4    2         0.3870973245E+01      0.3874510484E+01
          0                98           2             5    4     2      -0.1420646753E-01       5    4    2        -0.3866135231E+01      0.3869674750E+01
          0                99           2             5    4     2       0.1410730102E-01       5    4    2         0.3868228873E+01      0.3871762628E+01
          0               100           2             5    4     2      -0.1401235776E-01       5    4    2        -0.3863502834E+01      0.3867038945E+01
                                                   Max.-Head-Change                         Max.-Flux-Residual
  Residual-Control   Outer-Iter.   Inner-Iter.     Column Row Layer    Maximum-Head-Change  Column Row Layer    Maximum-Flux-Residual          L2-NORM 
          0               101           2             5    4     2       0.1392108674E-01       5    4    2         0.3865703209E+01      0.3869233618E+01
          0               102           2             5    4     2      -0.1383370011E-01       5    4    2        -0.3861080026E+01      0.3864613097E+01
          0               103           2             5    4     2       0.1374968711E-01       5    4    2         0.3863378566E+01      0.3866905938E+01
          0               104           2             5    4     2      -0.1366924752E-01       5    4    2        -0.3858849885E+01      0.3862380025E+01
          0               105           2             5    4     2       0.1359190785E-01       5    4    2         0.3861238728E+01      0.3864763315E+01
          0               106           2             5    4     2      -0.1351785613E-01       5    4    2        -0.3856796891E+01      0.3860324402E+01
          0               107           2             5    4     2       0.1344665336E-01       5    4    2         0.3859268821E+01      0.3862791046E+01
          0               108           2             5    4     2      -0.1337847639E-01       5    4    2        -0.3854906803E+01      0.3858431892E+01
          0               109           2             5    4     2       0.1331291816E-01       5    4    2         0.3857455193E+01      0.3860975029E+01
          0               110           2             5    4     2      -0.1325014491E-01       5    4    2        -0.3853166551E+01      0.3856689449E+01
                                                   Max.-Head-Change                         Max.-Flux-Residual
  Residual-Control   Outer-Iter.   Inner-Iter.     Column Row Layer    Maximum-Head-Change  Column Row Layer    Maximum-Flux-Residual          L2-NORM 
          0               111           2             5    4     2       0.1318977919E-01       5    4    2         0.3855785314E+01      0.3859302973E+01
          0               112           2             5    4     2      -0.1313197716E-01       5    4    2        -0.3851564135E+01      0.3855084994E+01
          0               113           2             5    4     2       0.1307638881E-01       5    4    2         0.3854247679E+01      0.3857763358E+01
          0               114           2             5    4     2      -0.1302316074E-01       5    4    2        -0.3850088536E+01      0.3853607491E+01
          0               115           2             5    4     2       0.1297196839E-01       5    4    2         0.3852831720E+01      0.3856345614E+01
          0               116           2             5    4     2      -0.1292294931E-01       5    4    2        -0.3848729630E+01      0.3852246815E+01
          0               117           2             5    4     2       0.1287580254E-01       5    4    2         0.3851527728E+01      0.3855039936E+01
          0               118           2             5    4     2      -0.1283065705E-01       5    4    2        -0.3847478115E+01      0.3850993838E+01
          0               119           2             5    4     2       0.1278723380E-01       5    4    2         0.3850326781E+01      0.3853837437E+01
          0               120           2             5    4     2      -0.1274565362E-01       5    4    2        -0.3846325442E+01      0.3849839613E+01
                                                   Max.-Head-Change                         Max.-Flux-Residual
  Residual-Control   Outer-Iter.   Inner-Iter.     Column Row Layer    Maximum-Head-Change  Column Row Layer    Maximum-Flux-Residual          L2-NORM 
          0               121           2             5    4     2       0.1270565781E-01       5    4    2         0.3849220678E+01      0.3852730005E+01
          0               122           2             5    4     2      -0.1266735953E-01       5    4    2        -0.3845263750E+01      0.3848776553E+01
          0               123           2             5    4     2       0.1263051894E-01       5    4    2         0.3848201878E+01      0.3851709817E+01
          0               124           2             5    4     2      -0.1259524194E-01       5    4    2        -0.3844285815E+01      0.3847797356E+01
          0               125           2             5    4     2       0.1256130622E-01       5    4    2         0.3847263451E+01      0.3850770259E+01
          0               126           2             5    4     2      -0.1252881083E-01       5    4    2        -0.3843384989E+01      0.3846895369E+01
          0               127           2             5    4     2       0.1249754971E-01       5    4    2         0.3846399019E+01      0.3849904684E+01
          0               128           2             5    4     2      -0.1246761546E-01       5    4    2        -0.3842555161E+01      0.3846064476E+01
          0               129           2             5    4     2       0.1243881711E-01       5    4    2         0.3845602717E+01      0.3849107333E+01
          0               130           2             5    4     2      -0.1241124119E-01       5    4    2        -0.3841790708E+01      0.3845298993E+01
                                                   Max.-Head-Change                         Max.-Flux-Residual
  Residual-Control   Outer-Iter.   Inner-Iter.     Column Row Layer    Maximum-Head-Change  Column Row Layer    Maximum-Flux-Residual          L2-NORM 
          0               131           2             5    4     2       0.1238471072E-01       5    4    2         0.3844869152E+01      0.3848372817E+01
          0               132           2             5    4     2      -0.1235930651E-01       5    4    2        -0.3841086456E+01      0.3844593927E+01
          0               133           2             5    4     2       0.1233486458E-01       5    4    2         0.3844193357E+01      0.3847696148E+01
          0               134           2             5    4     2      -0.1231146035E-01       5    4    2        -0.3840437644E+01      0.3843944264E+01
          0               135           2             5    4     2       0.1228894192E-01       5    4    2         0.3843570766E+01      0.3847072812E+01
          0               136           2             5    4     2      -0.1226737963E-01       5    4    2        -0.3839839892E+01      0.3843345744E+01
          0               137           2             5    4     2       0.1224663279E-01       5    4    2         0.3842997173E+01      0.3846498472E+01
          0               138           2             5    4     2      -0.1222676698E-01       5    4    2        -0.3839289167E+01      0.3842794239E+01
          0               139           2             5    4     2       0.1220765190E-01       5    4    2         0.3842468710E+01      0.3845969331E+01
          0               140           2             5    4     2      -0.1218934866E-01       5    4    2        -0.3838781757E+01      0.3842286228E+01
                                                   Max.-Head-Change                         Max.-Flux-Residual
  Residual-Control   Outer-Iter.   Inner-Iter.     Column Row Layer    Maximum-Head-Change  Column Row Layer    Maximum-Flux-Residual          L2-NORM 
          0               141           2             5    4     2       0.1217173662E-01       5    4    2         0.3841981813E+01      0.3845481798E+01
          0               142           2             5    4     2      -0.1215487269E-01       5    4    2        -0.3838314245E+01      0.3841818140E+01
          0               143           2             5    4     2       0.1213864518E-01       5    4    2         0.3841533205E+01      0.3845032602E+01
          0               144           2             5    4     2      -0.1212310707E-01       5    4    2        -0.3837883486E+01      0.3841386841E+01
          0               145           2             5    4     2       0.1210815497E-01       5    4    2         0.3841119866E+01      0.3844618793E+01
          0               146           2             5    4     2      -0.1209383817E-01       5    4    2        -0.3837486583E+01      0.3840989462E+01
          0               147           2             5    4     2       0.1208006100E-01       5    4    2         0.3840739016E+01      0.3844237403E+01
          0               148           2             5    4     2      -0.1206686931E-01       5    4    2        -0.3837120868E+01      0.3840623251E+01
          0               149           2             5    4     2       0.1205417455E-01       5    4    2         0.3840388095E+01      0.3843886025E+01
          0               150           2             5    4     2      -0.1204201936E-01       5    4    2        -0.3836783885E+01      0.3840285819E+01
                                                   Max.-Head-Change                         Max.-Flux-Residual
  Residual-Control   Outer-Iter.   Inner-Iter.     Column Row Layer    Maximum-Head-Change  Column Row Layer    Maximum-Flux-Residual          L2-NORM 
          0               151           2             5    4     2       0.1203032180E-01       5    4    2         0.3840064747E+01      0.3843562269E+01
          0               152           2             5    4     2      -0.1201912150E-01       5    4    2        -0.3836473374E+01      0.3839974954E+01
          0               153           2             5    4     2       0.1200834267E-01       5    4    2         0.3839766800E+01      0.3843263924E+01
          0               154           2             5    4     2      -0.1199802211E-01       5    4    2        -0.3836187250E+01      0.3839688468E+01
          0               155           2             5    4     2       0.1198808973E-01       5    4    2         0.3839492257E+01      0.3842989014E+01
          0               156           2             5    4     2      -0.1197857969E-01       5    4    2        -0.3835923595E+01      0.3839424461E+01
          0               157           2             5    4     2       0.1196942719E-01       5    4    2         0.3839239274E+01      0.3842735713E+01
          0               158           2             5    4     2      -0.1196066393E-01       5    4    2        -0.3835680642E+01      0.3839181172E+01
          0               159           2             5    4     2       0.1195222998E-01       5    4    2         0.3839006157E+01      0.3842502311E+01
          0               160           2             5    4     2      -0.1194415477E-01       5    4    2        -0.3835456763E+01      0.3838956999E+01
                                                   Max.-Head-Change                         Max.-Flux-Residual
  Residual-Control   Outer-Iter.   Inner-Iter.     Column Row Layer    Maximum-Head-Change  Column Row Layer    Maximum-Flux-Residual          L2-NORM 
          0               161           2             5    4     2       0.1193638289E-01       5    4    2         0.3838791344E+01      0.3842287214E+01
          0               162           2             5    4     2      -0.1192894163E-01       5    4    2        -0.3835250459E+01      0.3838750434E+01
          0               163           2             5    4     2       0.1192177978E-01       5    4    2         0.3838593394E+01      0.3842089028E+01
          0               164           2             5    4     2      -0.1191492264E-01       5    4    2        -0.3835060347E+01      0.3838560074E+01
          0               165           2             5    4     2       0.1190832289E-01       5    4    2         0.3838410983E+01      0.3841906350E+01
          0               166           2             5    4     2      -0.1190200398E-01       5    4    2        -0.3834885157E+01      0.3838384646E+01
          0               167           2             5    4     2       0.1189592216E-01       5    4    2         0.3838242890E+01      0.3841738096E+01
          0               168           2             5    4     2      -0.1189009918E-01       5    4    2        -0.3834723715E+01      0.3838223013E+01
          0               169           2             5    4     2       0.1188449461E-01       5    4    2         0.3838087989E+01      0.3841583015E+01
          0               170           2             5    4     2      -0.1187912860E-01       5    4    2        -0.3834574942E+01      0.3838074042E+01
                                                   Max.-Head-Change                         Max.-Flux-Residual
  Residual-Control   Outer-Iter.   Inner-Iter.     Column Row Layer    Maximum-Head-Change  Column Row Layer    Maximum-Flux-Residual          L2-NORM 
          0               171           2             5    4     2       0.1187396381E-01       5    4    2         0.3837945244E+01      0.3841440093E+01
          0               172           2             5    4     2      -0.1186901887E-01       5    4    2        -0.3834437843E+01      0.3837936780E+01
          0               173           2             5    4     2       0.1186425931E-01       5    4    2         0.3837813701E+01      0.3841308377E+01
          0               174           2             5    4     2      -0.1185970238E-01       5    4    2        -0.3834311500E+01      0.3837810273E+01
          0               175           2             5    4     2       0.1185531623E-01       5    4    2         0.3837692480E+01      0.3841186989E+01
          0               176           2             5    4     2      -0.1185111685E-01       5    4    2        -0.3834195070E+01      0.3837693679E+01
          0               177           2             5    4     2       0.1184707480E-01       5    4    2         0.3837580769E+01      0.3841075100E+01
          0               178           2             5    4     2      -0.1184320488E-01       5    4    2        -0.3834087774E+01      0.3837586264E+01
          0               179           2             5    4     2       0.1183947992E-01       5    4    2         0.3837477823E+01      0.3840972042E+01
          0               180           2             5    4     2      -0.1183591360E-01       5    4    2        -0.3833988895E+01      0.3837487236E+01
                                                   Max.-Head-Change                         Max.-Flux-Residual
  Residual-Control   Outer-Iter.   Inner-Iter.     Column Row Layer    Maximum-Head-Change  Column Row Layer    Maximum-Flux-Residual          L2-NORM 
          0               181           2             5    4     2       0.1183248084E-01       5    4    2         0.3837382953E+01      0.3840877053E+01
          0               182           2             5    4     2      -0.1182919430E-01       5    4    2        -0.3833897773E+01      0.3837396026E+01
          0               183           2             5    4     2       0.1182603080E-01       5    4    2         0.3837295526E+01      0.3840789488E+01
          0               184           2             5    4     2      -0.1182300206E-01       5    4    2        -0.3833813798E+01      0.3837311964E+01
          0               185           2             5    4     2       0.1182008670E-01       5    4    2         0.3837214957E+01      0.3840708840E+01
          0               186           2             5    4     2      -0.1181729554E-01       5    4    2        -0.3833736410E+01      0.3837234428E+01
          0               187           2             5    4     2       0.1181460884E-01       5    4    2         0.3837140707E+01      0.3840634499E+01
          0               188           2             5    4     2      -0.1181203662E-01       5    4    2        -0.3833665091E+01      0.3837163034E+01
          0               189           2             5    4     2       0.1180956064E-01       5    4    2         0.3837072282E+01      0.3840565980E+01
          0               190           2             5    4     2      -0.1180719016E-01       5    4    2        -0.3833599367E+01      0.3837097199E+01
                                                   Max.-Head-Change                         Max.-Flux-Residual
  Residual-Control   Outer-Iter.   Inner-Iter.     Column Row Layer    Maximum-Head-Change  Column Row Layer    Maximum-Flux-Residual          L2-NORM 
          0               191           2             5    4     2       0.1180490837E-01       5    4    2         0.3837009223E+01      0.3840502873E+01
          0               192           2             5    4     2      -0.1180272382E-01       5    4    2        -0.3833538796E+01      0.3837036577E+01
          0               193           2             5    4     2       0.1180062098E-01       5    4    2         0.3836951111E+01      0.3840444706E+01
          0               194           2             5    4     2      -0.1179860776E-01       5    4    2        -0.3833482977E+01      0.3836980669E+01
          0               195           2             5    4     2       0.1179666983E-01       5    4    2         0.3836897556E+01      0.3840391008E+01
          0               196           2             5    4     2      -0.1179481450E-01       5    4    2        -0.3833431535E+01      0.3836929183E+01
          0               197           2             5    4     2       0.1179302856E-01       5    4    2         0.3836848201E+01      0.3840341575E+01
          0               198           2             5    4     2      -0.1179131873E-01       5    4    2        -0.3833384127E+01      0.3836881696E+01
          0               199           2             5    4     2       0.1178967284E-01       5    4    2         0.3836802717E+01      0.3840296051E+01
          0               200           2             5    4     2      -0.1178809710E-01       5    4    2        -0.3833340436E+01      0.3836837963E+01
                                                   Max.-Head-Change                         Max.-Flux-Residual
  Residual-Control   Outer-Iter.   Inner-Iter.     Column Row Layer    Maximum-Head-Change  Column Row Layer    Maximum-Flux-Residual          L2-NORM 
          0               201           2             5    4     2       0.1178658028E-01       5    4    2         0.3836760800E+01      0.3840254057E+01
          0               202           2             5    4     2      -0.1178512812E-01       5    4    2        -0.3833300172E+01      0.3836797632E+01
          0               203           2             5    4     2       0.1178373024E-01       5    4    2         0.3836722170E+01      0.3840215393E+01
          0               204           2             5    4     2      -0.1178239195E-01       5    4    2        -0.3833263066E+01      0.3836760473E+01
          0               205           2             5    4     2       0.1178110369E-01       5    4    2         0.3836686570E+01      0.3840179749E+01
          0               206           2             5    4     2      -0.1177987035E-01       5    4    2        -0.3833228869E+01      0.3836726251E+01
          0               207           2             5    4     2       0.1177868311E-01       5    4    2         0.3836653761E+01      0.3840146903E+01
          0               208           2             5    4     2      -0.1177754648E-01       5    4    2        -0.3833197354E+01      0.3836694660E+01
          0               209           2             5    4     2       0.1177645234E-01       5    4    2         0.3836623525E+01      0.3840116638E+01
          0               210           2             5    4     2      -0.1177540484E-01       5    4    2        -0.3833168309E+01      0.3836665613E+01
                                                   Max.-Head-Change                         Max.-Flux-Residual
  Residual-Control   Outer-Iter.   Inner-Iter.     Column Row Layer    Maximum-Head-Change  Column Row Layer    Maximum-Flux-Residual          L2-NORM 
          0               211           2             5    4     2       0.1177439649E-01       5    4    2         0.3836595660E+01      0.3840088733E+01
          0               212           2             5    4     2      -0.1177343113E-01       5    4    2        -0.3833141543E+01      0.3836638810E+01
          0               213           2             5    4     2       0.1177250185E-01       5    4    2         0.3836569980E+01      0.3840063002E+01
          0               214           2             5    4     2      -0.1177161219E-01       5    4    2        -0.3833116875E+01      0.3836614092E+01
          0               215           2             5    4     2       0.1177075577E-01       5    4    2         0.3836546313E+01      0.3840039286E+01
          0               216           2             5    4     2      -0.1176993587E-01       5    4    2        -0.3833094141E+01      0.3836591336E+01
          0               217           2             5    4     2       0.1176914660E-01       5    4    2         0.3836524503E+01      0.3840017469E+01
          0               218           2             5    4     2      -0.1176839099E-01       5    4    2        -0.3833073190E+01      0.3836570332E+01
          0               219           2             5    4     2       0.1176766360E-01       5    4    2         0.3836504402E+01      0.3839997349E+01
          0               220           2             5    4     2      -0.1176696724E-01       5    4    2        -0.3833053882E+01      0.3836551030E+01
                                                   Max.-Head-Change                         Max.-Flux-Residual
  Residual-Control   Outer-Iter.   Inner-Iter.     Column Row Layer    Maximum-Head-Change  Column Row Layer    Maximum-Flux-Residual          L2-NORM 
          0               221           2             5    4     2       0.1176629689E-01       5    4    2         0.3836485878E+01      0.3839978804E+01
          0               222           2             5    4     2      -0.1176565513E-01       5    4    2        -0.3833036087E+01      0.3836533210E+01
          0               223           2             5    4     2       0.1176503734E-01       5    4    2         0.3836468806E+01      0.3839961701E+01
          0               224           2             5    4     2      -0.1176444590E-01       5    4    2        -0.3833019688E+01      0.3836516765E+01
          0               225           2             5    4     2       0.1176387655E-01       5    4    2         0.3836453073E+01      0.3839945933E+01
          0               226           2             5    4     2      -0.1176333148E-01       5    4    2        -0.3833004575E+01      0.3836501639E+01
          0               227           2             5    4     2       0.1176280677E-01       5    4    2         0.3836438573E+01      0.3839931434E+01
          0               228           2             5    4     2      -0.1176230444E-01       5    4    2        -0.3832990646E+01      0.3836487714E+01
          0               229           2             5    4     2       0.1176182087E-01       5    4    2         0.3836425210E+01      0.3839918037E+01
          0               230           2             5    4     2      -0.1176135793E-01       5    4    2        -0.3832977810E+01      0.3836474845E+01
                                                   Max.-Head-Change                         Max.-Flux-Residual
  Residual-Control   Outer-Iter.   Inner-Iter.     Column Row Layer    Maximum-Head-Change  Column Row Layer    Maximum-Flux-Residual          L2-NORM 
          0               231           2             5    4     2       0.1176091227E-01       5    4    2         0.3836412895E+01      0.3839905731E+01
          0               232           2             5    4     2      -0.1176048563E-01       5    4    2        -0.3832965980E+01      0.3836463017E+01
          0               233           2             5    4     2       0.1176007491E-01       5    4    2         0.3836401546E+01      0.3839894359E+01
          0               234           2             5    4     2      -0.1175968172E-01       5    4    2        -0.3832955078E+01      0.3836452104E+01
          0               235           2             5    4     2       0.1175930321E-01       5    4    2         0.3836391086E+01      0.3839883885E+01
          0               236           2             5    4     2      -0.1175894084E-01       5    4    2        -0.3832945030E+01      0.3836441998E+01
          0               237           2             5    4     2       0.1175859201E-01       5    4    2         0.3836381447E+01      0.3839874232E+01
          0               238           2             5    4     2      -0.1175825805E-01       5    4    2        -0.3832935770E+01      0.3836432752E+01
          0               239           2             5    4     2       0.1175793657E-01       5    4    2         0.3836372563E+01      0.3839865330E+01
          0               240           2             5    4     2      -0.1175762880E-01       5    4    2        -0.3832927236E+01      0.3836424201E+01
                                                   Max.-Head-Change                         Max.-Flux-Residual
  Residual-Control   Outer-Iter.   Inner-Iter.     Column Row Layer    Maximum-Head-Change  Column Row Layer    Maximum-Flux-Residual          L2-NORM 
          0               241           2             5    4     2       0.1175733252E-01       5    4    2         0.3836364376E+01      0.3839857125E+01
          0               242           2             5    4     2      -0.1175704888E-01       5    4    2        -0.3832919372E+01      0.3836416324E+01
          0               243           2             5    4     2       0.1175677583E-01       5    4    2         0.3836356831E+01      0.3839849559E+01
          0               244           2             5    4     2      -0.1175651443E-01       5    4    2        -0.3832912123E+01      0.3836409073E+01
          0               245           2             5    4     2       0.1175626278E-01       5    4    2         0.3836349877E+01      0.3839842589E+01
          0               246           2             5    4     2      -0.1175602188E-01       5    4    2        -0.3832905444E+01      0.3836402373E+01
          0               247           2             5    4     2       0.1175578996E-01       5    4    2         0.3836343468E+01      0.3839836206E+01
          0               248           2             5    4     2      -0.1175556795E-01       5    4    2        -0.3832899288E+01      0.3836396210E+01
          0               249           2             5    4     2       0.1175535422E-01       5    4    2         0.3836337562E+01      0.3839830296E+01
          0               250           2             5    4     2      -0.1175514960E-01       5    4    2        -0.3832893614E+01      0.3836390537E+01
                                                   Max.-Head-Change                         Max.-Flux-Residual
  Residual-Control   Outer-Iter.   Inner-Iter.     Column Row Layer    Maximum-Head-Change  Column Row Layer    Maximum-Flux-Residual          L2-NORM 
          0               251           2             5    4     2       0.1175495263E-01       5    4    2         0.3836332119E+01      0.3839824845E+01
          0               252           2             5    4     2      -0.1175476406E-01       5    4    2        -0.3832888385E+01      0.3836385291E+01
          0               253           2             5    4     2       0.1175458253E-01       5    4    2         0.3836327103E+01      0.3839819819E+01
          0               254           2             5    4     2      -0.1175440875E-01       5    4    2        -0.3832883567E+01      0.3836380477E+01
          0               255           2             5    4     2       0.1175424145E-01       5    4    2         0.3836322480E+01      0.3839815187E+01
          0               256           2             5    4     2      -0.1175408129E-01       5    4    2        -0.3832879126E+01      0.3836376028E+01
          0               257           2             5    4     2       0.1175392711E-01       5    4    2         0.3836318220E+01      0.3839810922E+01
          0               258           2             5    4     2      -0.1175377950E-01       5    4    2        -0.3832875033E+01      0.3836371948E+01
          0               259           2             5    4     2       0.1175363741E-01       5    4    2         0.3836314293E+01      0.3839806997E+01
          0               260           2             5    4     2      -0.1175350138E-01       5    4    2        -0.3832871261E+01      0.3836368156E+01
                                                   Max.-Head-Change                         Max.-Flux-Residual
  Residual-Control   Outer-Iter.   Inner-Iter.     Column Row Layer    Maximum-Head-Change  Column Row Layer    Maximum-Flux-Residual          L2-NORM 
          0               261           2             5    4     2       0.1175337043E-01       5    4    2         0.3836310675E+01      0.3839803371E+01
          0               262           2             5    4     2      -0.1175324506E-01       5    4    2        -0.3832867785E+01      0.3836364663E+01
          0               263           2             5    4     2       0.1175312438E-01       5    4    2         0.3836307340E+01      0.3839799998E+01
          0               264           2             5    4     2      -0.1175300884E-01       5    4    2        -0.3832864581E+01      0.3836361456E+01
          0               265           2             5    4     2       0.1175289761E-01       5    4    2         0.3836304266E+01      0.3839796924E+01
          0               266           2             5    4     2      -0.1175279114E-01       5    4    2        -0.3832861629E+01      0.3836358520E+01
          0               267           2             5    4     2       0.1175268863E-01       5    4    2         0.3836301434E+01      0.3839794093E+01
          0               268           2             5    4     2      -0.1175259050E-01       5    4    2        -0.3832858908E+01      0.3836355813E+01
          0               269           2             5    4     2       0.1175249603E-01       5    4    2         0.3836298823E+01      0.3839791484E+01
          0               270           2             5    4     2      -0.1175240560E-01       5    4    2        -0.3832856400E+01      0.3836353290E+01
                                                   Max.-Head-Change                         Max.-Flux-Residual
  Residual-Control   Outer-Iter.   Inner-Iter.     Column Row Layer    Maximum-Head-Change  Column Row Layer    Maximum-Flux-Residual          L2-NORM 
          0               271           2             5    4     2       0.1175231854E-01       5    4    2         0.3836296417E+01      0.3839789084E+01
          0               272           2             5    4     2      -0.1175223519E-01       5    4    2        -0.3832854089E+01      0.3836350952E+01
          0               273           2             5    4     2       0.1175215495E-01       5    4    2         0.3836294200E+01      0.3839786862E+01
          0               274           2             5    4     2      -0.1175207814E-01       5    4    2        -0.3832851960E+01      0.3836348831E+01
          0               275           2             5    4     2       0.1175200420E-01       5    4    2         0.3836292157E+01      0.3839784818E+01
          0               276           2             5    4     2      -0.1175193341E-01       5    4    2        -0.3832849997E+01      0.3836346858E+01
          0               277           2             5    4     2       0.1175186526E-01       5    4    2         0.3836290274E+01      0.3839782918E+01
          0               278           2             5    4     2      -0.1175180002E-01       5    4    2        -0.3832848188E+01      0.3836345051E+01
          0               279           2             5    4     2       0.1175173722E-01       5    4    2         0.3836288538E+01      0.3839781184E+01
          0               280           2             5    4     2      -0.1175167709E-01       5    4    2        -0.3832846521E+01      0.3836343370E+01
                                                   Max.-Head-Change                         Max.-Flux-Residual
  Residual-Control   Outer-Iter.   Inner-Iter.     Column Row Layer    Maximum-Head-Change  Column Row Layer    Maximum-Flux-Residual          L2-NORM 
          0               281           2             5    4     2       0.1175161921E-01       5    4    2         0.3836286939E+01      0.3839779572E+01
          0               282           2             5    4     2      -0.1175156380E-01       5    4    2        -0.3832844984E+01      0.3836341838E+01
          0               283           2             5    4     2       0.1175151046E-01       5    4    2         0.3836285465E+01      0.3839778107E+01
          0               284           2             5    4     2      -0.1175145939E-01       5    4    2        -0.3832843568E+01      0.3836340415E+01
          0               285           2             5    4     2       0.1175141023E-01       5    4    2         0.3836284107E+01      0.3839776748E+01
          0               286           2             5    4     2      -0.1175136317E-01       5    4    2        -0.3832842263E+01      0.3836339108E+01
          0               287           2             5    4     2       0.1175131786E-01       5    4    2         0.3836282855E+01      0.3839775478E+01
          0               288           2             5    4     2      -0.1175127449E-01       5    4    2        -0.3832841060E+01      0.3836337895E+01
          0               289           2             5    4     2       0.1175123273E-01       5    4    2         0.3836281701E+01      0.3839774348E+01
          0               290           2             5    4     2      -0.1175119276E-01       5    4    2        -0.3832839952E+01      0.3836336787E+01
                                                   Max.-Head-Change                         Max.-Flux-Residual
  Residual-Control   Outer-Iter.   Inner-Iter.     Column Row Layer    Maximum-Head-Change  Column Row Layer    Maximum-Flux-Residual          L2-NORM 
          0               291           2             5    4     2       0.1175115428E-01       5    4    2         0.3836280637E+01      0.3839773287E+01
          0               292           2             5    4     2      -0.1175111744E-01       5    4    2        -0.3832838931E+01      0.3836335786E+01
          0               293           2             5    4     2       0.1175108197E-01       5    4    2         0.3836279657E+01      0.3839772309E+01
          0               294           2             5    4     2      -0.1175104802E-01       5    4    2        -0.3832837989E+01      0.3836334844E+01
          0               295           2             5    4     2       0.1175101534E-01       5    4    2         0.3836278754E+01      0.3839771404E+01
          0               296           2             5    4     2      -0.1175098405E-01       5    4    2        -0.3832837122E+01      0.3836333978E+01
          0               297           2             5    4     2       0.1175095393E-01       5    4    2         0.3836277922E+01      0.3839770576E+01
          0               298           2             5    4     2      -0.1175092509E-01       5    4    2        -0.3832836322E+01      0.3836333187E+01
          0               299           2             5    4     2       0.1175089733E-01       5    4    2         0.3836277155E+01      0.3839769803E+01
          0               300           2             5    4     2      -0.1175087076E-01       5    4    2        -0.3832835585E+01      0.3836332445E+01
                                                   Max.-Head-Change                         Max.-Flux-Residual
  Residual-Control   Outer-Iter.   Inner-Iter.     Column Row Layer    Maximum-Head-Change  Column Row Layer    Maximum-Flux-Residual          L2-NORM 
          0               301           2             5    4     2       0.1175084517E-01       5    4    2         0.3836276448E+01      0.3839769108E+01
          0               302           2             5    4     2      -0.1175082068E-01       5    4    2        -0.3832834906E+01      0.3836331766E+01
          0               303           2             5    4     2       0.1175079711E-01       5    4    2         0.3836275796E+01      0.3839768455E+01
          0               304           2             5    4     2      -0.1175077453E-01       5    4    2        -0.3832834280E+01      0.3836331140E+01
          0               305           2             5    4     2       0.1175075280E-01       5    4    2         0.3836275196E+01      0.3839767854E+01
          0               306           2             5    4     2      -0.1175073200E-01       5    4    2        -0.3832833703E+01      0.3836330563E+01
          0               307           2             5    4     2       0.1175071198E-01       5    4    2         0.3836274643E+01      0.3839767284E+01
          0               308           2             5    4     2      -0.1175069281E-01       5    4    2        -0.3832833172E+01      0.3836330027E+01
          0               309           2             5    4     2       0.1175067435E-01       5    4    2         0.3836274133E+01      0.3839766774E+01
          0               310           2             5    4     2      -0.1175065668E-01       5    4    2        -0.3832832682E+01      0.3836329544E+01
                                                   Max.-Head-Change                         Max.-Flux-Residual
  Residual-Control   Outer-Iter.   Inner-Iter.     Column Row Layer    Maximum-Head-Change  Column Row Layer    Maximum-Flux-Residual          L2-NORM 
          0               311           2             5    4     2       0.1175063967E-01       5    4    2         0.3836273663E+01      0.3839766314E+01
          0               312           2             5    4     2      -0.1175062339E-01       5    4    2        -0.3832832230E+01      0.3836329092E+01
          0               313           2             5    4     2       0.1175060772E-01       5    4    2         0.3836273229E+01      0.3839765881E+01
          0               314           2             5    4     2      -0.1175059271E-01       5    4    2        -0.3832831814E+01      0.3836328676E+01
          0               315           2             5    4     2       0.1175057826E-01       5    4    2         0.3836272830E+01      0.3839765481E+01
          0               316           2             5    4     2      -0.1175056443E-01       5    4    2        -0.3832831431E+01      0.3836328292E+01
          0               317           2             5    4     2       0.1175055112E-01       5    4    2         0.3836272462E+01      0.3839765118E+01
          0               318           2             5    4     2      -0.1175053837E-01       5    4    2        -0.3832831077E+01      0.3836327934E+01
          0               319           2             5    4     2       0.1175052611E-01       5    4    2         0.3836272123E+01      0.3839764758E+01
          0               320           2             5    4     2      -0.1175051436E-01       5    4    2        -0.3832830752E+01      0.3836327617E+01
                                                   Max.-Head-Change                         Max.-Flux-Residual
  Residual-Control   Outer-Iter.   Inner-Iter.     Column Row Layer    Maximum-Head-Change  Column Row Layer    Maximum-Flux-Residual          L2-NORM 
          0               321           2             5    4     2       0.1175050305E-01       5    4    2         0.3836271811E+01      0.3839764462E+01
          0               322           2             5    4     2      -0.1175049223E-01       5    4    2        -0.3832830452E+01      0.3836327310E+01
          0               323           2             5    4     2       0.1175048180E-01       5    4    2         0.3836271523E+01      0.3839764170E+01
          0               324           2             5    4     2      -0.1175047183E-01       5    4    2        -0.3832830175E+01      0.3836327029E+01
          0               325           2             5    4     2       0.1175046222E-01       5    4    2         0.3836271258E+01      0.3839763904E+01
          0               326           2             5    4     2      -0.1175045303E-01       5    4    2        -0.3832829920E+01      0.3836326778E+01
          0               327           2             5    4     2       0.1175044418E-01       5    4    2         0.3836271013E+01      0.3839763660E+01
          0               328           2             5    4     2      -0.1175043570E-01       5    4    2        -0.3832829685E+01      0.3836326542E+01
          0               329           2             5    4     2       0.1175042755E-01       5    4    2         0.3836270788E+01      0.3839763434E+01
          0               330           2             5    4     2      -0.1175041974E-01       5    4    2        -0.3832829469E+01      0.3836326310E+01
                                                   Max.-Head-Change                         Max.-Flux-Residual
  Residual-Control   Outer-Iter.   Inner-Iter.     Column Row Layer    Maximum-Head-Change  Column Row Layer    Maximum-Flux-Residual          L2-NORM 
          0               331           2             5    4     2       0.1175041222E-01       5    4    2         0.3836270580E+01      0.3839763225E+01
          0               332           2             5    4     2      -0.1175040502E-01       5    4    2        -0.3832829269E+01      0.3836326127E+01
          0               333           2             5    4     2       0.1175039809E-01       5    4    2         0.3836270388E+01      0.3839763034E+01
          0               334           2             5    4     2      -0.1175039146E-01       5    4    2        -0.3832829085E+01      0.3836325953E+01
          0               335           2             5    4     2       0.1175038508E-01       5    4    2         0.3836270212E+01      0.3839762860E+01
          0               336           2             5    4     2      -0.1175037896E-01       5    4    2        -0.3832828916E+01      0.3836325781E+01
          0               337           2             5    4     2       0.1175037308E-01       5    4    2         0.3836270049E+01      0.3839762695E+01
          0               338           2             5    4     2      -0.1175036744E-01       5    4    2        -0.3832828759E+01      0.3836325594E+01
          0               339           2             5    4     2       0.1175036202E-01       5    4    2         0.3836269899E+01      0.3839762532E+01
          0               340           2             5    4     2      -0.1175035683E-01       5    4    2        -0.3832828615E+01      0.3836325467E+01
                                                   Max.-Head-Change                         Max.-Flux-Residual
  Residual-Control   Outer-Iter.   Inner-Iter.     Column Row Layer    Maximum-Head-Change  Column Row Layer    Maximum-Flux-Residual          L2-NORM 
          0               341           2             5    4     2       0.1175035183E-01       5    4    2         0.3836269761E+01      0.3839762409E+01
          0               342           2             5    4     2      -0.1175034705E-01       5    4    2        -0.3832828483E+01      0.3836325329E+01
          0               343           2             5    4     2       0.1175034244E-01       5    4    2         0.3836269634E+01      0.3839762281E+01
          0               344           2             5    4     2      -0.1175033803E-01       5    4    2        -0.3832828360E+01      0.3836325226E+01
          0               345           2             5    4     2       0.1175033379E-01       5    4    2         0.3836269517E+01      0.3839762162E+01
          0               346           2             5    4     2      -0.1175032972E-01       5    4    2        -0.3832828248E+01      0.3836325083E+01
          0               347           2             5    4     2       0.1175032581E-01       5    4    2         0.3836269409E+01      0.3839762036E+01
          0               348           2             5    4     2      -0.1175032206E-01       5    4    2        -0.3832828144E+01      0.3836325006E+01
          0               349           2             5    4     2       0.1175031846E-01       5    4    2         0.3836269309E+01      0.3839761954E+01
          0               350           2             5    4     2      -0.1175031501E-01       5    4    2        -0.3832828048E+01      0.3836324880E+01
                                                   Max.-Head-Change                         Max.-Flux-Residual
  Residual-Control   Outer-Iter.   Inner-Iter.     Column Row Layer    Maximum-Head-Change  Column Row Layer    Maximum-Flux-Residual          L2-NORM 
          0               351           2             5    4     2       0.1175031168E-01       5    4    2         0.3836269217E+01      0.3839761849E+01
          0               352           2             5    4     2      -0.1175030850E-01       5    4    2        -0.3832827960E+01      0.3836324814E+01
          0               353           2             5    4     2       0.1175030544E-01       5    4    2         0.3836269133E+01      0.3839761779E+01
          0               354           2             5    4     2      -0.1175030251E-01       5    4    2        -0.3832827879E+01      0.3836324722E+01
          0               355           2             5    4     2       0.1175029969E-01       5    4    2         0.3836269055E+01      0.3839761693E+01
          0               356           2             5    4     2      -0.1175029698E-01       5    4    2        -0.3832827804E+01      0.3836324666E+01
          0               357           2             5    4     2       0.1175029438E-01       5    4    2         0.3836268983E+01      0.3839761629E+01
          0               358           2             5    4     2      -0.1175029189E-01       5    4    2        -0.3832827735E+01      0.3836324578E+01
          0               359           2             5    4     2       0.1175028950E-01       5    4    2         0.3836268916E+01      0.3839761556E+01
          0               360           2             5    4     2      -0.1175028720E-01       5    4    2        -0.3832827671E+01      0.3836324503E+01
                                                   Max.-Head-Change                         Max.-Flux-Residual
  Residual-Control   Outer-Iter.   Inner-Iter.     Column Row Layer    Maximum-Head-Change  Column Row Layer    Maximum-Flux-Residual          L2-NORM 
          0               361           2             5    4     2       0.1175028499E-01       5    4    2         0.3836268855E+01      0.3839761482E+01
          0               362           2             5    4     2      -0.1175028288E-01       5    4    2        -0.3832827612E+01      0.3836324466E+01
          0               363           2             5    4     2       0.1175028084E-01       5    4    2         0.3836268799E+01      0.3839761445E+01
          0               364           2             5    4     2      -0.1175027889E-01       5    4    2        -0.3832827558E+01      0.3836324402E+01
          0               365           2             5    4     2       0.1175027702E-01       5    4    2         0.3836268747E+01      0.3839761377E+01
          0               366           2             5    4     2      -0.1175027522E-01       5    4    2        -0.3832827509E+01      0.3836324369E+01
          0               367           2             5    4     2       0.1175027349E-01       5    4    2         0.3836268699E+01      0.3839761346E+01
          0               368           2             5    4     2      -0.1175027184E-01       5    4    2        -0.3832827463E+01      0.3836324305E+01
          0               369           2             5    4     2       0.1175027024E-01       5    4    2         0.3836268655E+01      0.3839761297E+01
          0               370           2             5    4     2      -0.1175026872E-01       5    4    2        -0.3832827420E+01      0.3836324245E+01
                                                   Max.-Head-Change                         Max.-Flux-Residual
  Residual-Control   Outer-Iter.   Inner-Iter.     Column Row Layer    Maximum-Head-Change  Column Row Layer    Maximum-Flux-Residual          L2-NORM 
          0               371           2             5    4     2       0.1175026725E-01       5    4    2         0.3836268615E+01      0.3839761240E+01
          0               372           2             5    4     2      -0.1175026584E-01       5    4    2        -0.3832827381E+01      0.3836324225E+01
          0               373           2             5    4     2       0.1175026449E-01       5    4    2         0.3836268577E+01      0.3839761218E+01
          0               374           2             5    4     2      -0.1175026319E-01       5    4    2        -0.3832827345E+01      0.3836324208E+01
          0               375           2             5    4     2       0.1175026194E-01       5    4    2         0.3836268543E+01      0.3839761186E+01
          0               376           2             5    4     2      -0.1175026075E-01       5    4    2        -0.3832827312E+01      0.3836324147E+01
          0               377           2             5    4     2       0.1175025960E-01       5    4    2         0.3836268511E+01      0.3839761151E+01
          0               378           2             5    4     2      -0.1175025850E-01       5    4    2        -0.3832827282E+01      0.3836324126E+01
          0               379           2             5    4     2       0.1175025744E-01       5    4    2         0.3836268482E+01      0.3839761119E+01
          0               380           2             5    4     2      -0.1175025643E-01       5    4    2        -0.3832827254E+01      0.3836324105E+01
                                                   Max.-Head-Change                         Max.-Flux-Residual
  Residual-Control   Outer-Iter.   Inner-Iter.     Column Row Layer    Maximum-Head-Change  Column Row Layer    Maximum-Flux-Residual          L2-NORM 
          0               381           2             5    4     2       0.1175025545E-01       5    4    2         0.3836268455E+01      0.3839761084E+01
          0               382           2             5    4     2      -0.1175025451E-01       5    4    2        -0.3832827228E+01      0.3836324070E+01
          0               383           2             5    4     2       0.1175025361E-01       5    4    2         0.3836268430E+01      0.3839761068E+01
          0               384           2             5    4     2      -0.1175025275E-01       5    4    2        -0.3832827204E+01      0.3836324039E+01
          0               385           2             5    4     2       0.1175025192E-01       5    4    2         0.3836268407E+01      0.3839761047E+01
          0               386           2             5    4     2      -0.1175025113E-01       5    4    2        -0.3832827182E+01      0.3836324044E+01
          0               387           2             5    4     2       0.1175025037E-01       5    4    2         0.3836268386E+01      0.3839761028E+01
          0               388           2             5    4     2      -0.1175024963E-01       5    4    2        -0.3832827162E+01      0.3836324004E+01
          0               389           2             5    4     2       0.1175024893E-01       5    4    2         0.3836268367E+01      0.3839761007E+01
          0               390           2             5    4     2      -0.1175024826E-01       5    4    2        -0.3832827143E+01      0.3836323979E+01
                                                   Max.-Head-Change                         Max.-Flux-Residual
  Residual-Control   Outer-Iter.   Inner-Iter.     Column Row Layer    Maximum-Head-Change  Column Row Layer    Maximum-Flux-Residual          L2-NORM 
          0               391           2             5    4     2       0.1175024761E-01       5    4    2         0.3836268349E+01      0.3839760976E+01
          0               392           2             5    4     2      -0.1175024698E-01       5    4    2        -0.3832827126E+01      0.3836323976E+01
          0               393           2             5    4     2       0.1175024639E-01       5    4    2         0.3836268332E+01      0.3839760962E+01
          0               394           2             5    4     2      -0.1175024581E-01       5    4    2        -0.3832827110E+01      0.3836323952E+01
          0               395           2             5    4     2       0.1175024526E-01       5    4    2         0.3836268317E+01      0.3839760958E+01
          0               396           2             5    4     2      -0.1175024473E-01       5    4    2        -0.3832827095E+01      0.3836323930E+01
          0               397           2             5    4     2       0.1175024423E-01       5    4    2         0.3836268303E+01      0.3839760942E+01
          0               398           2             5    4     2      -0.1175024374E-01       5    4    2        -0.3832827082E+01      0.3836323944E+01
          0               399           2             5    4     2       0.1175024327E-01       5    4    2         0.3836268290E+01      0.3839760935E+01
          0               400           2             5    4     2      -0.1175024282E-01       5    4    2        -0.3832827069E+01      0.3836323912E+01
                                                   Max.-Head-Change                         Max.-Flux-Residual
  Residual-Control   Outer-Iter.   Inner-Iter.     Column Row Layer    Maximum-Head-Change  Column Row Layer    Maximum-Flux-Residual          L2-NORM 
          0               401           2             5    4     2       0.1175024239E-01       5    4    2         0.3836268278E+01      0.3839760918E+01
          0               402           2             5    4     2      -0.1175024198E-01       5    4    2        -0.3832827058E+01      0.3836323919E+01
          0               403           2             5    4     2       0.1175024158E-01       5    4    2         0.3836268267E+01      0.3839760901E+01
          0               404           2             5    4     2      -0.1175024120E-01       5    4    2        -0.3832827047E+01      0.3836323870E+01
          0               405           2             5    4     2       0.1175024083E-01       5    4    2         0.3836268257E+01      0.3839760882E+01
          0               406           2             5    4     2      -0.1175024048E-01       5    4    2        -0.3832827037E+01      0.3836323880E+01
          0               407           2             5    4     2       0.1175024014E-01       5    4    2         0.3836268248E+01      0.3839760888E+01
          0               408           2             5    4     2      -0.1175023982E-01       5    4    2        -0.3832827029E+01      0.3836323890E+01
          0               409           2             5    4     2       0.1175023951E-01       5    4    2         0.3836268239E+01      0.3839760884E+01
          0               410           2             5    4     2      -0.1175023921E-01       5    4    2        -0.3832827020E+01      0.3836323855E+01
                                                   Max.-Head-Change                         Max.-Flux-Residual
  Residual-Control   Outer-Iter.   Inner-Iter.     Column Row Layer    Maximum-Head-Change  Column Row Layer    Maximum-Flux-Residual          L2-NORM 
          0               411           2             5    4     2       0.1175023892E-01       5    4    2         0.3836268231E+01      0.3839760871E+01
          0               412           2             5    4     2      -0.1175023865E-01       5    4    2        -0.3832827013E+01      0.3836323874E+01
          0               413           2             5    4     2       0.1175023839E-01       5    4    2         0.3836268224E+01      0.3839760869E+01
          0               414           2             5    4     2      -0.1175023813E-01       5    4    2        -0.3832827006E+01      0.3836323848E+01
          0               415           2             5    4     2       0.1175023789E-01       5    4    2         0.3836268217E+01      0.3839760846E+01
          0               416           2             5    4     2      -0.1175023766E-01       5    4    2        -0.3832826999E+01      0.3836323823E+01
          0               417           2             5    4     2       0.1175023743E-01       5    4    2         0.3836268211E+01      0.3839760835E+01
          0               418           2             5    4     2      -0.1175023722E-01       5    4    2        -0.3832826993E+01      0.3836323854E+01
          0               419           2             5    4     2       0.1175023701E-01       5    4    2         0.3836268205E+01      0.3839760850E+01
          0               420           2             5    4     2      -0.1175023681E-01       5    4    2        -0.3832826988E+01      0.3836323830E+01
                                                   Max.-Head-Change                         Max.-Flux-Residual
  Residual-Control   Outer-Iter.   Inner-Iter.     Column Row Layer    Maximum-Head-Change  Column Row Layer    Maximum-Flux-Residual          L2-NORM 
          0               421           2             5    4     2       0.1175023662E-01       5    4    2         0.3836268200E+01      0.3839760840E+01
          0               422           2             5    4     2      -0.1175023644E-01       5    4    2        -0.3832826983E+01      0.3836323844E+01
          0               423           2             5    4     2       0.1175023626E-01       5    4    2         0.3836268195E+01      0.3839760840E+01
          0               424           2             5    4     2      -0.1175023609E-01       5    4    2        -0.3832826978E+01      0.3836323812E+01
          0               425           2             5    4     2       0.1175023593E-01       5    4    2         0.3836268190E+01      0.3839760819E+01
          0               426           2             5    4     2      -0.1175023578E-01       5    4    2        -0.3832826974E+01      0.3836323816E+01
          0               427           2             5    4     2       0.1175023563E-01       5    4    2         0.3836268186E+01      0.3839760827E+01
          0               428           2             5    4     2      -0.1175023548E-01       5    4    2        -0.3832826970E+01      0.3836323812E+01
          0               429           2             5    4     2       0.1175023535E-01       5    4    2         0.3836268182E+01      0.3839760822E+01
          0               430           2             5    4     2      -0.1175023521E-01       5    4    2        -0.3832826966E+01      0.3836323809E+01
                                                   Max.-Head-Change                         Max.-Flux-Residual
  Residual-Control   Outer-Iter.   Inner-Iter.     Column Row Layer    Maximum-Head-Change  Column Row Layer    Maximum-Flux-Residual          L2-NORM 
          0               431           2             5    4     2       0.1175023509E-01       5    4    2         0.3836268179E+01      0.3839760808E+01
          0               432           2             5    4     2      -0.1175023497E-01       5    4    2        -0.3832826963E+01      0.3836323805E+01
          0               433           2             5    4     2       0.1175023485E-01       5    4    2         0.3836268176E+01      0.3839760816E+01
          0               434           2             5    4     2      -0.1175023474E-01       5    4    2        -0.3832826960E+01      0.3836323821E+01
          0               435           2             5    4     2       0.1175023463E-01       5    4    2         0.3836268173E+01      0.3839760818E+01
          0               436           2             5    4     2      -0.1175023453E-01       5    4    2        -0.3832826957E+01      0.3836323791E+01
          0               437           2             5    4     2       0.1175023443E-01       5    4    2         0.3836268170E+01      0.3839760798E+01
          0               438           2             5    4     2      -0.1175023433E-01       5    4    2        -0.3832826954E+01      0.3836323797E+01
          0               439           2             5    4     2       0.1175023424E-01       5    4    2         0.3836268168E+01      0.3839760808E+01
          0               440           2             5    4     2      -0.1175023415E-01       5    4    2        -0.3832826952E+01      0.3836323813E+01
                                                   Max.-Head-Change                         Max.-Flux-Residual
  Residual-Control   Outer-Iter.   Inner-Iter.     Column Row Layer    Maximum-Head-Change  Column Row Layer    Maximum-Flux-Residual          L2-NORM 
          0               441           2             5    4     2       0.1175023407E-01       5    4    2         0.3836268165E+01      0.3839760810E+01
          0               442           2             5    4     2      -0.1175023399E-01       5    4    2        -0.3832826949E+01      0.3836323773E+01
          0               443           2             5    4     2       0.1175023391E-01       5    4    2         0.3836268163E+01      0.3839760787E+01
          0               444           2             5    4     2      -0.1175023384E-01       5    4    2        -0.3832826947E+01      0.3836323809E+01
          0               445           2             5    4     2       0.1175023376E-01       5    4    2         0.3836268161E+01      0.3839760806E+01
          0               446           2             5    4     2      -0.1175023370E-01       5    4    2        -0.3832826945E+01      0.3836323788E+01
          0               447           2             5    4     2       0.1175023363E-01       5    4    2         0.3836268159E+01      0.3839760797E+01
          0               448           2             5    4     2      -0.1175023357E-01       5    4    2        -0.3832826944E+01      0.3836323786E+01
          0               449           2             5    4     2       0.1175023351E-01       5    4    2         0.3836268158E+01      0.3839760795E+01
          0               450           2             5    4     2      -0.1175023345E-01       5    4    2        -0.3832826942E+01      0.3836323796E+01
                                                   Max.-Head-Change                         Max.-Flux-Residual
  Residual-Control   Outer-Iter.   Inner-Iter.     Column Row Layer    Maximum-Head-Change  Column Row Layer    Maximum-Flux-Residual          L2-NORM 
          0               451           2             5    4     2       0.1175023339E-01       5    4    2         0.3836268156E+01      0.3839760801E+01
          0               452           2             5    4     2      -0.1175023334E-01       5    4    2        -0.3832826941E+01      0.3836323783E+01
          0               453           2             5    4     2       0.1175023329E-01       5    4    2         0.3836268155E+01      0.3839760792E+01
          0               454           2             5    4     2      -0.1175023324E-01       5    4    2        -0.3832826939E+01      0.3836323800E+01
          0               455           2             5    4     2       0.1175023319E-01       5    4    2         0.3836268153E+01      0.3839760798E+01
          0               456           2             5    4     2      -0.1175023314E-01       5    4    2        -0.3832826938E+01      0.3836323762E+01
          0               457           2             5    4     2       0.1175023310E-01       5    4    2         0.3836268152E+01      0.3839760765E+01
          0               458           2             5    4     2      -0.1175023306E-01       5    4    2        -0.3832826937E+01      0.3836323779E+01
          0               459           2             5    4     2       0.1175023302E-01       5    4    2         0.3836268151E+01      0.3839760792E+01
          0               460           2             5    4     2      -0.1175023298E-01       5    4    2        -0.3832826936E+01      0.3836323778E+01
                                                   Max.-Head-Change                         Max.-Flux-Residual
  Residual-Control   Outer-Iter.   Inner-Iter.     Column Row Layer    Maximum-Head-Change  Column Row Layer    Maximum-Flux-Residual          L2-NORM 
          0               461           2             5    4     2       0.1175023294E-01       5    4    2         0.3836268150E+01      0.3839760790E+01
          0               462           2             5    4     2      -0.1175023291E-01       5    4    2        -0.3832826935E+01      0.3836323788E+01
          0               463           2             5    4     2       0.1175023287E-01       5    4    2         0.3836268149E+01      0.3839760793E+01
          0               464           2             5    4     2      -0.1175023284E-01       5    4    2        -0.3832826934E+01      0.3836323777E+01
          0               465           2             5    4     2       0.1175023281E-01       5    4    2         0.3836268148E+01      0.3839760788E+01
          0               466           2             5    4     2      -0.1175023278E-01       5    4    2        -0.3832826933E+01      0.3836323795E+01
          0               467           2             5    4     2       0.1175023275E-01       5    4    2         0.3836268147E+01      0.3839760775E+01
          0               468           2             5    4     2      -0.1175023272E-01       5    4    2        -0.3832826932E+01      0.3836323755E+01
          0               469           2             5    4     2       0.1175023269E-01       5    4    2         0.3836268147E+01      0.3839760786E+01
          0               470           2             5    4     2      -0.1175023267E-01       5    4    2        -0.3832826931E+01      0.3836323775E+01
                                                   Max.-Head-Change                         Max.-Flux-Residual
  Residual-Control   Outer-Iter.   Inner-Iter.     Column Row Layer    Maximum-Head-Change  Column Row Layer    Maximum-Flux-Residual          L2-NORM 
          0               471           2             5    4     2       0.1175023264E-01       5    4    2         0.3836268146E+01      0.3839760783E+01
          0               472           2             5    4     2      -0.1175023262E-01       5    4    2        -0.3832826931E+01      0.3836323792E+01
          0               473           2             5    4     2       0.1175023259E-01       5    4    2         0.3836268145E+01      0.3839760790E+01
          0               474           2             5    4     2      -0.1175023257E-01       5    4    2        -0.3832826930E+01      0.3836323773E+01
          0               475           2             5    4     2       0.1175023255E-01       5    4    2         0.3836268145E+01      0.3839760773E+01
          0               476           2             5    4     2      -0.1175023253E-01       5    4    2        -0.3832826930E+01      0.3836323782E+01
          0               477           2             5    4     2       0.1175023251E-01       5    4    2         0.3836268144E+01      0.3839760775E+01
          0               478           2             5    4     2      -0.1175023249E-01       5    4    2        -0.3832826929E+01      0.3836323760E+01
          0               479           2             5    4     2       0.1175023248E-01       5    4    2         0.3836268144E+01      0.3839760784E+01
          0               480           2             5    4     2      -0.1175023246E-01       5    4    2        -0.3832826929E+01      0.3836323771E+01
                                                   Max.-Head-Change                         Max.-Flux-Residual
  Residual-Control   Outer-Iter.   Inner-Iter.     Column Row Layer    Maximum-Head-Change  Column Row Layer    Maximum-Flux-Residual          L2-NORM 
          0               481           2             5    4     2       0.1175023244E-01       5    4    2         0.3836268143E+01      0.3839760783E+01
          0               482           2             5    4     2      -0.1175023243E-01       5    4    2        -0.3832826928E+01      0.3836323782E+01
          0               483           2             5    4     2       0.1175023241E-01       5    4    2         0.3836268143E+01      0.3839760787E+01
          0               484           2             5    4     2      -0.1175023240E-01       5    4    2        -0.3832826928E+01      0.3836323771E+01
          0               485           2             5    4     2       0.1175023238E-01       5    4    2         0.3836268142E+01      0.3839760779E+01
          0               486           2             5    4     2      -0.1175023237E-01       5    4    2        -0.3832826927E+01      0.3836323789E+01
          0               487           2             5    4     2       0.1175023236E-01       5    4    2         0.3836268142E+01      0.3839760787E+01
          0               488           2             5    4     2      -0.1175023234E-01       5    4    2        -0.3832826927E+01      0.3836323751E+01
          0               489           2             5    4     2       0.1175023233E-01       5    4    2         0.3836268142E+01      0.3839760754E+01
          0               490           2             5    4     2      -0.1175023232E-01       5    4    2        -0.3832826927E+01      0.3836323769E+01
                                                   Max.-Head-Change                         Max.-Flux-Residual
  Residual-Control   Outer-Iter.   Inner-Iter.     Column Row Layer    Maximum-Head-Change  Column Row Layer    Maximum-Flux-Residual          L2-NORM 
          0               491           2             5    4     2       0.1175023231E-01       5    4    2         0.3836268141E+01      0.3839760782E+01
          0               492           2             5    4     2      -0.1175023230E-01       5    4    2        -0.3832826927E+01      0.3836323769E+01
          0               493           2             5    4     2       0.1175023229E-01       5    4    2         0.3836268141E+01      0.3839760781E+01
          0               494           2             5    4     2      -0.1175023228E-01       5    4    2        -0.3832826926E+01      0.3836323780E+01
          0               495           2             5    4     2       0.1175023227E-01       5    4    2         0.3836268141E+01      0.3839760785E+01
          0               496           2             5    4     2      -0.1175023226E-01       5    4    2        -0.3832826926E+01      0.3836323769E+01
          0               497           2             5    4     2       0.1175023225E-01       5    4    2         0.3836268141E+01      0.3839760780E+01
          0               498           2             5    4     2      -0.1175023225E-01       5    4    2        -0.3832826926E+01      0.3836323787E+01
          0               499           2             5    4     2       0.1175023224E-01       5    4    2         0.3836268140E+01      0.3839760768E+01
          0               500           2             5    4     2      -0.1175023223E-01       5    4    2        -0.3832826926E+01      0.3836323749E+01

    ------------------------------------------------
       NWT REQUIRED          500 OUTER ITERATIONS 
       AND A TOTAL OF       1000 INNER ITERATIONS.
    ------------------------------------------------

 NO OUTPUT CONTROL FOR STRESS PERIOD    6   TIME STEP   13



 STREAM LISTING     PERIOD      6   STEP       13

 LAYER ROW COL. STREAM  RCH.  FLOW INTO     FLOW TO   FLOW OUT OF   OVRLND.     DIRECT     STREAM       STREAM     STREAM     STREAM   STREAMBED  STREAMBED
                SEG.NO.  NO.  STRM. RCH.    AQUIFER    STRM. RCH.    RUNOFF     PRECIP       ET          HEAD       DEPTH      WIDTH   CONDCTNC.   GRADIENT

   2    1    1     1     1    5.0300E+02  5.2859E+00   4.9771E+02  0.000E+00  0.000E+00  0.000E+00  1.09633E+03  3.280E+00  4.031E+01  1.814E+00  9.714E-01
   2    2    2     1     2    4.9771E+02  1.5288E+01   4.8243E+02  0.000E+00  0.000E+00  0.000E+00  1.09131E+03  3.254E+00  3.999E+01  2.800E+00  1.820E+00
   2    3    3     1     3    4.8243E+02  1.4744E+01   4.6768E+02  0.000E+00  0.000E+00  0.000E+00  1.08564E+03  3.217E+00  3.953E+01  2.372E+00  2.072E+00
   2    3    4     1     4    4.6768E+02  1.3407E+01   4.5427E+02  0.000E+00  0.000E+00  0.000E+00  1.08059E+03  3.181E+00  3.908E+01  2.169E+00  2.060E+00
   2    4    5     2     1    4.4427E+02  0.0000E+00   4.4427E+02  0.000E+00  0.000E+00  0.000E+00  1.07872E+03  6.788E+00  1.200E+01  0.000E+00  3.263E+00
   2    5    6     2     2    4.4427E+02  5.8566E+00   4.3842E+02  0.000E+00  0.000E+00  0.000E+00  1.07327E+03  6.761E+00  1.200E+01  6.000E-01  3.254E+00
   2    6    6     2     3    4.3842E+02  5.8243E+00   4.3259E+02  0.000E+00  0.000E+00  0.000E+00  1.06850E+03  6.707E+00  1.200E+01  6.000E-01  3.236E+00
   2    7    6     2     4    4.3259E+02  5.7920E+00   4.2680E+02  0.000E+00  0.000E+00  0.000E+00  1.06373E+03  6.653E+00  1.200E+01  6.000E-01  3.218E+00
   2    8    6     2     5    4.2680E+02  5.7597E+00   4.2104E+02  0.000E+00  0.000E+00  0.000E+00  1.05896E+03  6.600E+00  1.200E+01  6.000E-01  3.200E+00
   2    3    5     3     1    1.0000E+01  2.8252E+00   7.1748E+00  0.000E+00  0.000E+00  0.000E+00  1.07555E+03  1.909E+00  9.636E+00  7.227E-01  1.955E+00
   2    3    6     3     2    7.1748E+00  2.4905E+00   4.6843E+00  0.000E+00  0.000E+00  0.000E+00  1.07264E+03  1.727E+00  8.909E+00  6.682E-01  1.864E+00
   2    3    7     3     3    4.6843E+00  1.9718E+00   2.7125E+00  0.000E+00  0.000E+00  0.000E+00  1.06987E+03  1.555E+00  8.218E+00  5.547E-01  1.777E+00
   2    4    8     3     4    2.7125E+00  2.2567E+00   4.5579E-01  0.000E+00  0.000E+00  0.000E+00  1.06682E+03  1.364E+00  7.455E+00  6.709E-01  1.682E+00
   2    5    8     3     5    4.5579E-01  4.5579E-01   0.0000E+00  0.000E+00  0.000E+00  0.000E+00  1.06362E+03  0.000E+00  6.655E+00  4.991E-01  1.582E+00
   2    6    8     3     6    0.0000E+00  0.0000E+00   0.0000E+00  0.000E+00  0.000E+00  0.000E+00  1.06055E+03  0.000E+00  6.145E+00  1.844E-01  1.000E+00
   2    5   10     4     1    1.0000E+01  9.0525E-01   9.0947E+00  0.000E+00  0.000E+00  0.000E+00  1.07835E+03  6.210E-01  1.000E+01  2.500E-01  1.207E+00
   2    5    9     4     2    9.0947E+00  1.7835E+00   7.3113E+00  0.000E+00  0.000E+00  0.000E+00  1.07148E+03  5.670E-01  1.000E+01  5.000E-01  1.189E+00
   2    6    8     4     3    7.3113E+00  1.2257E+00   6.0855E+00  0.000E+00  0.000E+00  0.000E+00  1.06368E+03  5.021E-01  1.000E+01  3.500E-01  1.167E+00
   2    6    8     5     1    6.0855E+00  1.4716E+00   4.6139E+00  0.000E+00  0.000E+00  0.000E+00  1.05854E+03  5.396E-01  1.039E+01  4.158E-01  1.180E+00
   2    7    7     5     2    4.6139E+00  1.4897E+00   3.1242E+00  0.000E+00  0.000E+00  0.000E+00  1.05398E+03  4.817E-01  8.557E+00  4.279E-01  1.161E+00
   2    8    7     5     3    3.1242E+00  8.2855E-01   2.2957E+00  0.000E+00  0.000E+00  0.000E+00  1.04968E+03  4.253E-01  6.911E+00  2.419E-01  1.142E+00
   2    8    6     5     4    2.2957E+00  4.9455E-01   1.8011E+00  0.000E+00  0.000E+00  0.000E+00  1.04664E+03  3.856E-01  5.843E+00  1.461E-01  1.129E+00
   2    9    6     6     1    4.2284E+02  5.7815E+00   4.1706E+02  0.000E+00  0.000E+00  0.000E+00  1.04936E+03  6.636E+00  1.200E+01  6.000E-01  3.212E+00
   2   10    7     6     2    4.1706E+02  5.7486E+00   4.1131E+02  0.000E+00  0.000E+00  0.000E+00  1.04476E+03  6.581E+00  1.200E+01  6.000E-01  3.194E+00
   2   11    7     6     3    4.1131E+02  5.3970E+00   4.0592E+02  0.000E+00  0.000E+00  0.000E+00  1.04016E+03  6.528E+00  1.200E+01  6.000E-01  2.998E+00
   2   12    7     6     4    4.0592E+02  3.7976E+00   4.0212E+02  0.000E+00  0.000E+00  0.000E+00  1.03557E+03  6.484E+00  1.200E+01  6.000E-01  2.110E+00
   2   13    7     6     5    4.0212E+02  6.8108E-01   4.0144E+02  0.000E+00  0.000E+00  0.000E+00  1.03237E+03  6.462E+00  1.200E+01  2.400E-01  9.459E-01
   2   14    9     7     1    1.5000E+02  2.7671E+00   1.4723E+02  0.000E+00  0.000E+00  0.000E+00  1.03986E+03  2.284E+00  5.528E+01  5.591E+00  1.650E-01
   2   13    8     7     2    1.4723E+02  3.6038E+00   1.4363E+02  0.000E+00  0.000E+00  0.000E+00  1.03477E+03  2.267E+00  5.520E+01  6.141E+00  1.956E-01
   2   13    7     7     3    1.4363E+02  7.8780E-01   1.4284E+02  0.000E+00  0.000E+00  0.000E+00  1.02967E+03  2.255E+00  5.515E+01  5.577E+00  4.709E-02
   2   13    6     8     1    5.4428E+02  5.3518E+00   5.4020E+02  1.272E+00  0.000E+00  0.000E+00  1.02637E+03  4.497E+00  6.010E+01  6.142E+00  2.904E-01
   2   13    5     8     2    5.4020E+02  1.9606E+00   5.3951E+02  1.272E+00  0.000E+00  0.000E+00  1.02011E+03  4.490E+00  6.007E+01  6.139E+00  1.065E-01
   2   13    4     8     3    5.3951E+02 -6.9855E-01   5.4148E+02  1.272E+00  0.000E+00  0.000E+00  1.01387E+03  4.492E+00  6.008E+01  6.140E+00 -3.792E-02
   2   13    3     8     4    5.4148E+02 -1.7807E+00   5.4453E+02  1.272E+00  0.000E+00  0.000E+00  1.00762E+03  4.499E+00  6.011E+01  6.143E+00 -9.662E-02
   2   13    2     8     5    5.4453E+02 -6.0006E-01   5.4641E+02  1.272E+00  0.000E+00  0.000E+00  1.00138E+03  4.506E+00  6.014E+01  6.147E+00 -3.254E-02
   2   13    1     8     6    5.4641E+02 -4.1652E-01   5.4759E+02  7.633E-01  0.000E+00  0.000E+00  9.96385E+02  4.510E+00  6.015E+01  3.689E+00 -3.763E-02
   2    4    5     9     1    0.0000E+00  0.0000E+00   0.0000E+00  0.000E+00  0.000E+00  0.000E+00  1.06098E+03  9.802E-01  2.000E+01  0.000E+00 -9.895E-01
   2    4    5    10     1    0.0000E+00  0.0000E+00   0.0000E+00  0.000E+00  0.000E+00  0.000E+00  1.08000E+03  0.000E+00  2.000E+01  2.000E-03  1.000E+00





UNSATURATED ZONE PACKAGE VOLUMETRIC BUDGET FOR  TIME STEP    13 STRESS PERIOD    6
  ------------------------------------------------------------------------------



     CUMULATIVE VOLUMES      L**3       RATES FOR THIS TIME STEP      L**3/T
     ------------------                 ------------------------

           IN:                                      IN:
           ---                                      ---
        INFILTRATION =  1291341387.2261          INFILTRATION =          89.3568

          OUT:                                     OUT:
          ----                                     ----
              UZF ET =  1065332877.5046                UZF ET =          61.3210
        UZF RECHARGE =   587953622.4335          UZF RECHARGE =          38.9937

            IN - OUT =  -361945112.7121              IN - OUT =         -10.9579

          STORAGE:                                 STORAGE:
          --------                                 --------
      STORAGE CHANGE =  -361266070.6299        STORAGE CHANGE =         -10.9100

 PERCENT DISCREPANCY IS DIFFERENCE BETWEEN IN-OUT MINUS CHANGE IN STORAGE
 DIVIDED BY THE AVERAGE OF IN AND OUT TIMES 100

 PERCENT DISCREPANCY =          -0.01     PERCENT DISCREPANCY =          -0.05







         ****FAILED TO MEET SOLVER CONVERGENCE CRITERIA IN TIME STEP   13 OF STRESS PERIOD    6****
1
  VOLUMETRIC BUDGET FOR ENTIRE MODEL AT END OF TIME STEP   13, STRESS PERIOD   6
  ------------------------------------------------------------------------------

     CUMULATIVE VOLUMES      L**3       RATES FOR THIS TIME STEP      L**3/T
     ------------------                 ------------------------

           IN:                                      IN:
           ---                                      ---
             STORAGE     =    97734216.0000               STORAGE     =          12.1266
       CONSTANT HEAD     =           0.0000         CONSTANT HEAD     =           0.0000
               WELLS     =           0.0000                 WELLS     =           0.0000
     HEAD DEP BOUNDS     =     3307457.2500       HEAD DEP BOUNDS     =           0.2140
      STREAM LEAKAGE     =  1060591744.0000        STREAM LEAKAGE     =         126.0340
       LAKE  SEEPAGE     =           0.0000         LAKE  SEEPAGE     =           0.0000
        UZF RECHARGE     =   587953536.0000          UZF RECHARGE     =          38.9937
               GW ET     =           0.0000                 GW ET     =           0.0000
     SURFACE LEAKAGE     =           0.0000       SURFACE LEAKAGE     =           0.0000

                TOTAL IN =  1749586944.0000                  TOTAL IN =         177.3683

          OUT:                                     OUT:
          ----                                     ----
             STORAGE     =   978432000.0000               STORAGE     =         154.5614
       CONSTANT HEAD     =           0.0000         CONSTANT HEAD     =           0.0000
               WELLS     =   236520000.0000                 WELLS     =           0.0000
     HEAD DEP BOUNDS     =     4580211.5000       HEAD DEP BOUNDS     =           0.3229
      STREAM LEAKAGE     =   285698336.0000        STREAM LEAKAGE     =           3.4958
       LAKE  SEEPAGE     =           0.0000         LAKE  SEEPAGE     =           0.0000
        UZF RECHARGE     =           0.0000          UZF RECHARGE     =           0.0000
               GW ET     =   198491776.0000                 GW ET     =          15.4804
     SURFACE LEAKAGE     =    46374016.0000       SURFACE LEAKAGE     =           6.5340

               TOTAL OUT =  1750096256.0000                 TOTAL OUT =         180.3945

                IN - OUT =     -509312.0000                  IN - OUT =          -3.0263

     PERCENT DISCREPANCY =          -0.03         PERCENT DISCREPANCY =          -1.69






         TIME SUMMARY AT END OF TIME STEP   13 IN STRESS PERIOD    6
                    SECONDS     MINUTES      HOURS       DAYS        YEARS
                    -----------------------------------------------------------
   TIME STEP LENGTH 1.75200E+05  2920.0      48.667      2.0278     5.55175E-03
 STRESS PERIOD TIME 2.27760E+06  37960.      632.67      26.361     7.21728E-02
         TOTAL TIME 1.54176E+07 2.56960E+05  4282.7      178.44     0.48855    
1
 FAILURE TO MEET SOLVER CONVERGENCE CRITERIA
 BUDGET PERCENT DISCREPANCY IS   -1.6918
 STOPPING SIMULATION


 Run end date and time (yyyy/mm/dd hh:mm:ss): 2022/01/26 10:44:03
 Elapsed run time: 0.698 Seconds

